
---------- Begin Simulation Statistics ----------
simSeconds                                   0.005000                       # Number of seconds simulated (Second)
simTicks                                   5000000000                       # Number of ticks simulated (Tick)
finalTick                                428087529500                       # Number of ticks from beginning of simulation (restored from checkpoints and never reset) (Tick)
simFreq                                  1000000000000                       # The number of ticks per simulated second ((Tick/Second))
hostSeconds                                     28.81                       # Real time elapsed on the host (Second)
hostTickRate                                173545802                       # The number of ticks simulated per host second (ticks/s) ((Tick/Second))
hostMemory                                    3242772                       # Number of bytes of host memory used (Byte)
simInsts                                      7616475                       # Number of instructions simulated (Count)
simOps                                        8899190                       # Number of ops (including micro ops) simulated (Count)
hostInstRate                                   264361                       # Simulator instruction rate (inst/s) ((Count/Second))
hostOpRate                                     308883                       # Simulator op (including micro ops) rate (op/s) ((Count/Second))
system.bigCluster.clk_domain.clock                303                       # Clock period in ticks (Tick)
system.bigCluster.cpus.numCycles              9928471                       # Number of cpu cycles simulated (Cycle)
system.bigCluster.cpus.cpi                   1.672526                       # CPI: cycles per instruction (core level) ((Cycle/Count))
system.bigCluster.cpus.ipc                   0.597898                       # IPC: instructions per cycle (core level) ((Count/Cycle))
system.bigCluster.cpus.numWorkItemsStarted            0                       # Number of work items this cpu started (Count)
system.bigCluster.cpus.numWorkItemsCompleted            0                       # Number of work items this cpu completed (Count)
system.bigCluster.cpus.instsAdded             7506232                       # Number of instructions added to the IQ (excludes non-spec) (Count)
system.bigCluster.cpus.nonSpecInstsAdded        55376                       # Number of non-speculative instructions added to the IQ (Count)
system.bigCluster.cpus.instsIssued            7327521                       # Number of instructions issued (Count)
system.bigCluster.cpus.squashedInstsIssued        40124                       # Number of squashed instructions issued (Count)
system.bigCluster.cpus.squashedInstsExamined       801242                       # Number of squashed instructions iterated over during squash; mainly for profiling (Count)
system.bigCluster.cpus.squashedOperandsExamined       532471                       # Number of squashed operands that are examined and possibly removed from graph (Count)
system.bigCluster.cpus.squashedNonSpecRemoved         3638                       # Number of squashed non-spec instructions that were removed (Count)
system.bigCluster.cpus.numIssuedDist::samples      8901334                       # Number of insts issued each cycle (Count)
system.bigCluster.cpus.numIssuedDist::mean     0.823194                       # Number of insts issued each cycle (Count)
system.bigCluster.cpus.numIssuedDist::stdev     1.108496                       # Number of insts issued each cycle (Count)
system.bigCluster.cpus.numIssuedDist::underflows            0      0.00%      0.00% # Number of insts issued each cycle (Count)
system.bigCluster.cpus.numIssuedDist::0       5206786     58.49%     58.49% # Number of insts issued each cycle (Count)
system.bigCluster.cpus.numIssuedDist::1       1134555     12.75%     71.24% # Number of insts issued each cycle (Count)
system.bigCluster.cpus.numIssuedDist::2       1598783     17.96%     89.20% # Number of insts issued each cycle (Count)
system.bigCluster.cpus.numIssuedDist::3        852757      9.58%     98.78% # Number of insts issued each cycle (Count)
system.bigCluster.cpus.numIssuedDist::4        105136      1.18%     99.96% # Number of insts issued each cycle (Count)
system.bigCluster.cpus.numIssuedDist::5          3317      0.04%    100.00% # Number of insts issued each cycle (Count)
system.bigCluster.cpus.numIssuedDist::6             0      0.00%    100.00% # Number of insts issued each cycle (Count)
system.bigCluster.cpus.numIssuedDist::7             0      0.00%    100.00% # Number of insts issued each cycle (Count)
system.bigCluster.cpus.numIssuedDist::8             0      0.00%    100.00% # Number of insts issued each cycle (Count)
system.bigCluster.cpus.numIssuedDist::overflows            0      0.00%    100.00% # Number of insts issued each cycle (Count)
system.bigCluster.cpus.numIssuedDist::min_value            0                       # Number of insts issued each cycle (Count)
system.bigCluster.cpus.numIssuedDist::max_value            5                       # Number of insts issued each cycle (Count)
system.bigCluster.cpus.numIssuedDist::total      8901334                       # Number of insts issued each cycle (Count)
system.bigCluster.cpus.statFuBusy::No_OpClass            0      0.00%      0.00% # attempts to use FU when none available (Count)
system.bigCluster.cpus.statFuBusy::IntAlu       964644     53.34%     53.34% # attempts to use FU when none available (Count)
system.bigCluster.cpus.statFuBusy::IntMult         1372      0.08%     53.41% # attempts to use FU when none available (Count)
system.bigCluster.cpus.statFuBusy::IntDiv         1235      0.07%     53.48% # attempts to use FU when none available (Count)
system.bigCluster.cpus.statFuBusy::FloatAdd            0      0.00%     53.48% # attempts to use FU when none available (Count)
system.bigCluster.cpus.statFuBusy::FloatCmp            0      0.00%     53.48% # attempts to use FU when none available (Count)
system.bigCluster.cpus.statFuBusy::FloatCvt            0      0.00%     53.48% # attempts to use FU when none available (Count)
system.bigCluster.cpus.statFuBusy::FloatMult            0      0.00%     53.48% # attempts to use FU when none available (Count)
system.bigCluster.cpus.statFuBusy::FloatMultAcc            0      0.00%     53.48% # attempts to use FU when none available (Count)
system.bigCluster.cpus.statFuBusy::FloatDiv            0      0.00%     53.48% # attempts to use FU when none available (Count)
system.bigCluster.cpus.statFuBusy::FloatMisc            0      0.00%     53.48% # attempts to use FU when none available (Count)
system.bigCluster.cpus.statFuBusy::FloatSqrt            0      0.00%     53.48% # attempts to use FU when none available (Count)
system.bigCluster.cpus.statFuBusy::SimdAdd            0      0.00%     53.48% # attempts to use FU when none available (Count)
system.bigCluster.cpus.statFuBusy::SimdAddAcc            0      0.00%     53.48% # attempts to use FU when none available (Count)
system.bigCluster.cpus.statFuBusy::SimdAlu           28      0.00%     53.48% # attempts to use FU when none available (Count)
system.bigCluster.cpus.statFuBusy::SimdCmp            0      0.00%     53.48% # attempts to use FU when none available (Count)
system.bigCluster.cpus.statFuBusy::SimdCvt            0      0.00%     53.48% # attempts to use FU when none available (Count)
system.bigCluster.cpus.statFuBusy::SimdMisc            2      0.00%     53.48% # attempts to use FU when none available (Count)
system.bigCluster.cpus.statFuBusy::SimdMult            0      0.00%     53.48% # attempts to use FU when none available (Count)
system.bigCluster.cpus.statFuBusy::SimdMultAcc            0      0.00%     53.48% # attempts to use FU when none available (Count)
system.bigCluster.cpus.statFuBusy::SimdMatMultAcc            0      0.00%     53.48% # attempts to use FU when none available (Count)
system.bigCluster.cpus.statFuBusy::SimdShift            0      0.00%     53.48% # attempts to use FU when none available (Count)
system.bigCluster.cpus.statFuBusy::SimdShiftAcc            0      0.00%     53.48% # attempts to use FU when none available (Count)
system.bigCluster.cpus.statFuBusy::SimdDiv            0      0.00%     53.48% # attempts to use FU when none available (Count)
system.bigCluster.cpus.statFuBusy::SimdSqrt            0      0.00%     53.48% # attempts to use FU when none available (Count)
system.bigCluster.cpus.statFuBusy::SimdFloatAdd            0      0.00%     53.48% # attempts to use FU when none available (Count)
system.bigCluster.cpus.statFuBusy::SimdFloatAlu            0      0.00%     53.48% # attempts to use FU when none available (Count)
system.bigCluster.cpus.statFuBusy::SimdFloatCmp            0      0.00%     53.48% # attempts to use FU when none available (Count)
system.bigCluster.cpus.statFuBusy::SimdFloatCvt            0      0.00%     53.48% # attempts to use FU when none available (Count)
system.bigCluster.cpus.statFuBusy::SimdFloatDiv            0      0.00%     53.48% # attempts to use FU when none available (Count)
system.bigCluster.cpus.statFuBusy::SimdFloatMisc            0      0.00%     53.48% # attempts to use FU when none available (Count)
system.bigCluster.cpus.statFuBusy::SimdFloatMult            0      0.00%     53.48% # attempts to use FU when none available (Count)
system.bigCluster.cpus.statFuBusy::SimdFloatMultAcc            0      0.00%     53.48% # attempts to use FU when none available (Count)
system.bigCluster.cpus.statFuBusy::SimdFloatMatMultAcc            0      0.00%     53.48% # attempts to use FU when none available (Count)
system.bigCluster.cpus.statFuBusy::SimdFloatSqrt            0      0.00%     53.48% # attempts to use FU when none available (Count)
system.bigCluster.cpus.statFuBusy::SimdReduceAdd            0      0.00%     53.48% # attempts to use FU when none available (Count)
system.bigCluster.cpus.statFuBusy::SimdReduceAlu            0      0.00%     53.48% # attempts to use FU when none available (Count)
system.bigCluster.cpus.statFuBusy::SimdReduceCmp            0      0.00%     53.48% # attempts to use FU when none available (Count)
system.bigCluster.cpus.statFuBusy::SimdFloatReduceAdd            0      0.00%     53.48% # attempts to use FU when none available (Count)
system.bigCluster.cpus.statFuBusy::SimdFloatReduceCmp            0      0.00%     53.48% # attempts to use FU when none available (Count)
system.bigCluster.cpus.statFuBusy::SimdAes            0      0.00%     53.48% # attempts to use FU when none available (Count)
system.bigCluster.cpus.statFuBusy::SimdAesMix            0      0.00%     53.48% # attempts to use FU when none available (Count)
system.bigCluster.cpus.statFuBusy::SimdSha1Hash            0      0.00%     53.48% # attempts to use FU when none available (Count)
system.bigCluster.cpus.statFuBusy::SimdSha1Hash2            0      0.00%     53.48% # attempts to use FU when none available (Count)
system.bigCluster.cpus.statFuBusy::SimdSha256Hash            0      0.00%     53.48% # attempts to use FU when none available (Count)
system.bigCluster.cpus.statFuBusy::SimdSha256Hash2            0      0.00%     53.48% # attempts to use FU when none available (Count)
system.bigCluster.cpus.statFuBusy::SimdShaSigma2            0      0.00%     53.48% # attempts to use FU when none available (Count)
system.bigCluster.cpus.statFuBusy::SimdShaSigma3            0      0.00%     53.48% # attempts to use FU when none available (Count)
system.bigCluster.cpus.statFuBusy::SimdSha3            0      0.00%     53.48% # attempts to use FU when none available (Count)
system.bigCluster.cpus.statFuBusy::SimdSm4e            0      0.00%     53.48% # attempts to use FU when none available (Count)
system.bigCluster.cpus.statFuBusy::SimdCrc            0      0.00%     53.48% # attempts to use FU when none available (Count)
system.bigCluster.cpus.statFuBusy::SimdPredAlu            0      0.00%     53.48% # attempts to use FU when none available (Count)
system.bigCluster.cpus.statFuBusy::SimdDotProd            0      0.00%     53.48% # attempts to use FU when none available (Count)
system.bigCluster.cpus.statFuBusy::Matrix            0      0.00%     53.48% # attempts to use FU when none available (Count)
system.bigCluster.cpus.statFuBusy::MatrixMov            0      0.00%     53.48% # attempts to use FU when none available (Count)
system.bigCluster.cpus.statFuBusy::MatrixOP            0      0.00%     53.48% # attempts to use FU when none available (Count)
system.bigCluster.cpus.statFuBusy::MemRead       428046     23.67%     77.15% # attempts to use FU when none available (Count)
system.bigCluster.cpus.statFuBusy::MemWrite       412803     22.82%     99.97% # attempts to use FU when none available (Count)
system.bigCluster.cpus.statFuBusy::FloatMemRead            0      0.00%     99.97% # attempts to use FU when none available (Count)
system.bigCluster.cpus.statFuBusy::FloatMemWrite            0      0.00%     99.97% # attempts to use FU when none available (Count)
system.bigCluster.cpus.statFuBusy::InstPrefetch            0      0.00%     99.97% # attempts to use FU when none available (Count)
system.bigCluster.cpus.statFuBusy::SimdUnitStrideLoad            0      0.00%     99.97% # attempts to use FU when none available (Count)
system.bigCluster.cpus.statFuBusy::SimdUnitStrideStore            0      0.00%     99.97% # attempts to use FU when none available (Count)
system.bigCluster.cpus.statFuBusy::SimdUnitStrideMaskLoad            0      0.00%     99.97% # attempts to use FU when none available (Count)
system.bigCluster.cpus.statFuBusy::SimdUnitStrideMaskStore            0      0.00%     99.97% # attempts to use FU when none available (Count)
system.bigCluster.cpus.statFuBusy::SimdStridedLoad            0      0.00%     99.97% # attempts to use FU when none available (Count)
system.bigCluster.cpus.statFuBusy::SimdStridedStore            0      0.00%     99.97% # attempts to use FU when none available (Count)
system.bigCluster.cpus.statFuBusy::SimdIndexedLoad            0      0.00%     99.97% # attempts to use FU when none available (Count)
system.bigCluster.cpus.statFuBusy::SimdIndexedStore            0      0.00%     99.97% # attempts to use FU when none available (Count)
system.bigCluster.cpus.statFuBusy::SimdWholeRegisterLoad            0      0.00%     99.97% # attempts to use FU when none available (Count)
system.bigCluster.cpus.statFuBusy::SimdWholeRegisterStore            0      0.00%     99.97% # attempts to use FU when none available (Count)
system.bigCluster.cpus.statFuBusy::SimdUnitStrideFaultOnlyFirstLoad            0      0.00%     99.97% # attempts to use FU when none available (Count)
system.bigCluster.cpus.statFuBusy::SimdUnitStrideSegmentedLoad            0      0.00%     99.97% # attempts to use FU when none available (Count)
system.bigCluster.cpus.statFuBusy::SimdUnitStrideSegmentedStore            0      0.00%     99.97% # attempts to use FU when none available (Count)
system.bigCluster.cpus.statFuBusy::SimdUnitStrideSegmentedFaultOnlyFirstLoad            0      0.00%     99.97% # attempts to use FU when none available (Count)
system.bigCluster.cpus.statFuBusy::SimdStrideSegmentedLoad            0      0.00%     99.97% # attempts to use FU when none available (Count)
system.bigCluster.cpus.statFuBusy::SimdStrideSegmentedStore            0      0.00%     99.97% # attempts to use FU when none available (Count)
system.bigCluster.cpus.statFuBusy::SimdExt            0      0.00%     99.97% # attempts to use FU when none available (Count)
system.bigCluster.cpus.statFuBusy::SimdFloatExt            0      0.00%     99.97% # attempts to use FU when none available (Count)
system.bigCluster.cpus.statFuBusy::SimdConfig            0      0.00%     99.97% # attempts to use FU when none available (Count)
system.bigCluster.cpus.statFuBusy::SimdBf16Add            0      0.00%     99.97% # attempts to use FU when none available (Count)
system.bigCluster.cpus.statFuBusy::SimdBf16Cmp            0      0.00%     99.97% # attempts to use FU when none available (Count)
system.bigCluster.cpus.statFuBusy::SimdBf16Cvt            0      0.00%     99.97% # attempts to use FU when none available (Count)
system.bigCluster.cpus.statFuBusy::SimdBf16DotProd            0      0.00%     99.97% # attempts to use FU when none available (Count)
system.bigCluster.cpus.statFuBusy::SimdBf16MatMultAcc            0      0.00%     99.97% # attempts to use FU when none available (Count)
system.bigCluster.cpus.statFuBusy::SimdBf16Mult            0      0.00%     99.97% # attempts to use FU when none available (Count)
system.bigCluster.cpus.statFuBusy::SimdBf16MultAcc            0      0.00%     99.97% # attempts to use FU when none available (Count)
system.bigCluster.cpus.statFuBusy::Bf16Cvt            0      0.00%     99.97% # attempts to use FU when none available (Count)
system.bigCluster.cpus.statFuBusy::System          463      0.03%    100.00% # attempts to use FU when none available (Count)
system.bigCluster.cpus.issuedInstType_0::No_OpClass         3874      0.05%      0.05% # Number of instructions issued per FU type, per thread (Count)
system.bigCluster.cpus.issuedInstType_0::IntAlu      4982606     68.00%     68.05% # Number of instructions issued per FU type, per thread (Count)
system.bigCluster.cpus.issuedInstType_0::IntMult        15721      0.21%     68.27% # Number of instructions issued per FU type, per thread (Count)
system.bigCluster.cpus.issuedInstType_0::IntDiv          943      0.01%     68.28% # Number of instructions issued per FU type, per thread (Count)
system.bigCluster.cpus.issuedInstType_0::FloatAdd            0      0.00%     68.28% # Number of instructions issued per FU type, per thread (Count)
system.bigCluster.cpus.issuedInstType_0::FloatCmp            0      0.00%     68.28% # Number of instructions issued per FU type, per thread (Count)
system.bigCluster.cpus.issuedInstType_0::FloatCvt            0      0.00%     68.28% # Number of instructions issued per FU type, per thread (Count)
system.bigCluster.cpus.issuedInstType_0::FloatMult            0      0.00%     68.28% # Number of instructions issued per FU type, per thread (Count)
system.bigCluster.cpus.issuedInstType_0::FloatMultAcc            0      0.00%     68.28% # Number of instructions issued per FU type, per thread (Count)
system.bigCluster.cpus.issuedInstType_0::FloatDiv            0      0.00%     68.28% # Number of instructions issued per FU type, per thread (Count)
system.bigCluster.cpus.issuedInstType_0::FloatMisc            0      0.00%     68.28% # Number of instructions issued per FU type, per thread (Count)
system.bigCluster.cpus.issuedInstType_0::FloatSqrt            0      0.00%     68.28% # Number of instructions issued per FU type, per thread (Count)
system.bigCluster.cpus.issuedInstType_0::SimdAdd         2472      0.03%     68.31% # Number of instructions issued per FU type, per thread (Count)
system.bigCluster.cpus.issuedInstType_0::SimdAddAcc            0      0.00%     68.31% # Number of instructions issued per FU type, per thread (Count)
system.bigCluster.cpus.issuedInstType_0::SimdAlu         4245      0.06%     68.37% # Number of instructions issued per FU type, per thread (Count)
system.bigCluster.cpus.issuedInstType_0::SimdCmp         2891      0.04%     68.41% # Number of instructions issued per FU type, per thread (Count)
system.bigCluster.cpus.issuedInstType_0::SimdCvt            0      0.00%     68.41% # Number of instructions issued per FU type, per thread (Count)
system.bigCluster.cpus.issuedInstType_0::SimdMisc         2375      0.03%     68.44% # Number of instructions issued per FU type, per thread (Count)
system.bigCluster.cpus.issuedInstType_0::SimdMult            0      0.00%     68.44% # Number of instructions issued per FU type, per thread (Count)
system.bigCluster.cpus.issuedInstType_0::SimdMultAcc            0      0.00%     68.44% # Number of instructions issued per FU type, per thread (Count)
system.bigCluster.cpus.issuedInstType_0::SimdMatMultAcc            0      0.00%     68.44% # Number of instructions issued per FU type, per thread (Count)
system.bigCluster.cpus.issuedInstType_0::SimdShift            0      0.00%     68.44% # Number of instructions issued per FU type, per thread (Count)
system.bigCluster.cpus.issuedInstType_0::SimdShiftAcc            0      0.00%     68.44% # Number of instructions issued per FU type, per thread (Count)
system.bigCluster.cpus.issuedInstType_0::SimdDiv            0      0.00%     68.44% # Number of instructions issued per FU type, per thread (Count)
system.bigCluster.cpus.issuedInstType_0::SimdSqrt            0      0.00%     68.44% # Number of instructions issued per FU type, per thread (Count)
system.bigCluster.cpus.issuedInstType_0::SimdFloatAdd            0      0.00%     68.44% # Number of instructions issued per FU type, per thread (Count)
system.bigCluster.cpus.issuedInstType_0::SimdFloatAlu            0      0.00%     68.44% # Number of instructions issued per FU type, per thread (Count)
system.bigCluster.cpus.issuedInstType_0::SimdFloatCmp            0      0.00%     68.44% # Number of instructions issued per FU type, per thread (Count)
system.bigCluster.cpus.issuedInstType_0::SimdFloatCvt            0      0.00%     68.44% # Number of instructions issued per FU type, per thread (Count)
system.bigCluster.cpus.issuedInstType_0::SimdFloatDiv            0      0.00%     68.44% # Number of instructions issued per FU type, per thread (Count)
system.bigCluster.cpus.issuedInstType_0::SimdFloatMisc            0      0.00%     68.44% # Number of instructions issued per FU type, per thread (Count)
system.bigCluster.cpus.issuedInstType_0::SimdFloatMult            0      0.00%     68.44% # Number of instructions issued per FU type, per thread (Count)
system.bigCluster.cpus.issuedInstType_0::SimdFloatMultAcc            0      0.00%     68.44% # Number of instructions issued per FU type, per thread (Count)
system.bigCluster.cpus.issuedInstType_0::SimdFloatMatMultAcc            0      0.00%     68.44% # Number of instructions issued per FU type, per thread (Count)
system.bigCluster.cpus.issuedInstType_0::SimdFloatSqrt            0      0.00%     68.44% # Number of instructions issued per FU type, per thread (Count)
system.bigCluster.cpus.issuedInstType_0::SimdReduceAdd            0      0.00%     68.44% # Number of instructions issued per FU type, per thread (Count)
system.bigCluster.cpus.issuedInstType_0::SimdReduceAlu            0      0.00%     68.44% # Number of instructions issued per FU type, per thread (Count)
system.bigCluster.cpus.issuedInstType_0::SimdReduceCmp            0      0.00%     68.44% # Number of instructions issued per FU type, per thread (Count)
system.bigCluster.cpus.issuedInstType_0::SimdFloatReduceAdd            0      0.00%     68.44% # Number of instructions issued per FU type, per thread (Count)
system.bigCluster.cpus.issuedInstType_0::SimdFloatReduceCmp            0      0.00%     68.44% # Number of instructions issued per FU type, per thread (Count)
system.bigCluster.cpus.issuedInstType_0::SimdAes            0      0.00%     68.44% # Number of instructions issued per FU type, per thread (Count)
system.bigCluster.cpus.issuedInstType_0::SimdAesMix            0      0.00%     68.44% # Number of instructions issued per FU type, per thread (Count)
system.bigCluster.cpus.issuedInstType_0::SimdSha1Hash            0      0.00%     68.44% # Number of instructions issued per FU type, per thread (Count)
system.bigCluster.cpus.issuedInstType_0::SimdSha1Hash2            0      0.00%     68.44% # Number of instructions issued per FU type, per thread (Count)
system.bigCluster.cpus.issuedInstType_0::SimdSha256Hash            0      0.00%     68.44% # Number of instructions issued per FU type, per thread (Count)
system.bigCluster.cpus.issuedInstType_0::SimdSha256Hash2            0      0.00%     68.44% # Number of instructions issued per FU type, per thread (Count)
system.bigCluster.cpus.issuedInstType_0::SimdShaSigma2            0      0.00%     68.44% # Number of instructions issued per FU type, per thread (Count)
system.bigCluster.cpus.issuedInstType_0::SimdShaSigma3            0      0.00%     68.44% # Number of instructions issued per FU type, per thread (Count)
system.bigCluster.cpus.issuedInstType_0::SimdSha3            0      0.00%     68.44% # Number of instructions issued per FU type, per thread (Count)
system.bigCluster.cpus.issuedInstType_0::SimdSm4e            0      0.00%     68.44% # Number of instructions issued per FU type, per thread (Count)
system.bigCluster.cpus.issuedInstType_0::SimdCrc         1226      0.02%     68.46% # Number of instructions issued per FU type, per thread (Count)
system.bigCluster.cpus.issuedInstType_0::SimdPredAlu            0      0.00%     68.46% # Number of instructions issued per FU type, per thread (Count)
system.bigCluster.cpus.issuedInstType_0::SimdDotProd            0      0.00%     68.46% # Number of instructions issued per FU type, per thread (Count)
system.bigCluster.cpus.issuedInstType_0::Matrix            0      0.00%     68.46% # Number of instructions issued per FU type, per thread (Count)
system.bigCluster.cpus.issuedInstType_0::MatrixMov            0      0.00%     68.46% # Number of instructions issued per FU type, per thread (Count)
system.bigCluster.cpus.issuedInstType_0::MatrixOP            0      0.00%     68.46% # Number of instructions issued per FU type, per thread (Count)
system.bigCluster.cpus.issuedInstType_0::MemRead      1308390     17.86%     86.31% # Number of instructions issued per FU type, per thread (Count)
system.bigCluster.cpus.issuedInstType_0::MemWrite       876828     11.97%     98.28% # Number of instructions issued per FU type, per thread (Count)
system.bigCluster.cpus.issuedInstType_0::FloatMemRead            0      0.00%     98.28% # Number of instructions issued per FU type, per thread (Count)
system.bigCluster.cpus.issuedInstType_0::FloatMemWrite            0      0.00%     98.28% # Number of instructions issued per FU type, per thread (Count)
system.bigCluster.cpus.issuedInstType_0::InstPrefetch            0      0.00%     98.28% # Number of instructions issued per FU type, per thread (Count)
system.bigCluster.cpus.issuedInstType_0::SimdUnitStrideLoad            0      0.00%     98.28% # Number of instructions issued per FU type, per thread (Count)
system.bigCluster.cpus.issuedInstType_0::SimdUnitStrideStore            0      0.00%     98.28% # Number of instructions issued per FU type, per thread (Count)
system.bigCluster.cpus.issuedInstType_0::SimdUnitStrideMaskLoad            0      0.00%     98.28% # Number of instructions issued per FU type, per thread (Count)
system.bigCluster.cpus.issuedInstType_0::SimdUnitStrideMaskStore            0      0.00%     98.28% # Number of instructions issued per FU type, per thread (Count)
system.bigCluster.cpus.issuedInstType_0::SimdStridedLoad            0      0.00%     98.28% # Number of instructions issued per FU type, per thread (Count)
system.bigCluster.cpus.issuedInstType_0::SimdStridedStore            0      0.00%     98.28% # Number of instructions issued per FU type, per thread (Count)
system.bigCluster.cpus.issuedInstType_0::SimdIndexedLoad            0      0.00%     98.28% # Number of instructions issued per FU type, per thread (Count)
system.bigCluster.cpus.issuedInstType_0::SimdIndexedStore            0      0.00%     98.28% # Number of instructions issued per FU type, per thread (Count)
system.bigCluster.cpus.issuedInstType_0::SimdWholeRegisterLoad            0      0.00%     98.28% # Number of instructions issued per FU type, per thread (Count)
system.bigCluster.cpus.issuedInstType_0::SimdWholeRegisterStore            0      0.00%     98.28% # Number of instructions issued per FU type, per thread (Count)
system.bigCluster.cpus.issuedInstType_0::SimdUnitStrideFaultOnlyFirstLoad            0      0.00%     98.28% # Number of instructions issued per FU type, per thread (Count)
system.bigCluster.cpus.issuedInstType_0::SimdUnitStrideSegmentedLoad            0      0.00%     98.28% # Number of instructions issued per FU type, per thread (Count)
system.bigCluster.cpus.issuedInstType_0::SimdUnitStrideSegmentedStore            0      0.00%     98.28% # Number of instructions issued per FU type, per thread (Count)
system.bigCluster.cpus.issuedInstType_0::SimdUnitStrideSegmentedFaultOnlyFirstLoad            0      0.00%     98.28% # Number of instructions issued per FU type, per thread (Count)
system.bigCluster.cpus.issuedInstType_0::SimdStrideSegmentedLoad            0      0.00%     98.28% # Number of instructions issued per FU type, per thread (Count)
system.bigCluster.cpus.issuedInstType_0::SimdStrideSegmentedStore            0      0.00%     98.28% # Number of instructions issued per FU type, per thread (Count)
system.bigCluster.cpus.issuedInstType_0::SimdExt            0      0.00%     98.28% # Number of instructions issued per FU type, per thread (Count)
system.bigCluster.cpus.issuedInstType_0::SimdFloatExt            0      0.00%     98.28% # Number of instructions issued per FU type, per thread (Count)
system.bigCluster.cpus.issuedInstType_0::SimdConfig            0      0.00%     98.28% # Number of instructions issued per FU type, per thread (Count)
system.bigCluster.cpus.issuedInstType_0::SimdBf16Add            0      0.00%     98.28% # Number of instructions issued per FU type, per thread (Count)
system.bigCluster.cpus.issuedInstType_0::SimdBf16Cmp            0      0.00%     98.28% # Number of instructions issued per FU type, per thread (Count)
system.bigCluster.cpus.issuedInstType_0::SimdBf16Cvt            0      0.00%     98.28% # Number of instructions issued per FU type, per thread (Count)
system.bigCluster.cpus.issuedInstType_0::SimdBf16DotProd            0      0.00%     98.28% # Number of instructions issued per FU type, per thread (Count)
system.bigCluster.cpus.issuedInstType_0::SimdBf16MatMultAcc            0      0.00%     98.28% # Number of instructions issued per FU type, per thread (Count)
system.bigCluster.cpus.issuedInstType_0::SimdBf16Mult            0      0.00%     98.28% # Number of instructions issued per FU type, per thread (Count)
system.bigCluster.cpus.issuedInstType_0::SimdBf16MultAcc            0      0.00%     98.28% # Number of instructions issued per FU type, per thread (Count)
system.bigCluster.cpus.issuedInstType_0::Bf16Cvt            0      0.00%     98.28% # Number of instructions issued per FU type, per thread (Count)
system.bigCluster.cpus.issuedInstType_0::System       125950      1.72%    100.00% # Number of instructions issued per FU type, per thread (Count)
system.bigCluster.cpus.issuedInstType_0::total      7327521                       # Number of instructions issued per FU type, per thread (Count)
system.bigCluster.cpus.issueRate             0.738031                       # Inst issue rate ((Count/Cycle))
system.bigCluster.cpus.fuBusy                 1808593                       # FU busy when requested (Count)
system.bigCluster.cpus.fuBusyRate            0.246822                       # FU busy rate (busy events/executed inst) ((Count/Count))
system.bigCluster.cpus.intInstQueueReads     25367532                       # Number of integer instruction queue reads (Count)
system.bigCluster.cpus.intInstQueueWrites      8348644                       # Number of integer instruction queue writes (Count)
system.bigCluster.cpus.intInstQueueWakeupAccesses      7149128                       # Number of integer instruction queue wakeup accesses (Count)
system.bigCluster.cpus.fpInstQueueReads             0                       # Number of floating instruction queue reads (Count)
system.bigCluster.cpus.fpInstQueueWrites            0                       # Number of floating instruction queue writes (Count)
system.bigCluster.cpus.fpInstQueueWakeupAccesses            0                       # Number of floating instruction queue wakeup accesses (Count)
system.bigCluster.cpus.vecInstQueueReads        37561                       # Number of vector instruction queue reads (Count)
system.bigCluster.cpus.vecInstQueueWrites        18614                       # Number of vector instruction queue writes (Count)
system.bigCluster.cpus.vecInstQueueWakeupAccesses        17205                       # Number of vector instruction queue wakeup accesses (Count)
system.bigCluster.cpus.intAluAccesses         9113396                       # Number of integer alu accesses (Count)
system.bigCluster.cpus.fpAluAccesses                0                       # Number of floating point alu accesses (Count)
system.bigCluster.cpus.vecAluAccesses           18844                       # Number of vector alu accesses (Count)
system.bigCluster.cpus.numRecvResp            2056720                       # Number of received responses (Count)
system.bigCluster.cpus.numRecvRespBytes      17757928                       # Number of received response bytes (Byte)
system.bigCluster.cpus.recvRespAvgBW             1.79                       # Average bandwidth of received responses ((Byte/Cycle))
system.bigCluster.cpus.recvRespAvgSize           8.63                       # Average packet size per received response ((Byte/Count))
system.bigCluster.cpus.recvRespAvgRate           0.21                       # Average rate of received responses per cycle ((Count/Cycle))
system.bigCluster.cpus.recvRespAvgRetryRate         0.00                       # Average retry rate per received response ((Count/Count))
system.bigCluster.cpus.numSendRetryResp             0                       # Number of retry responses sent (Count)
system.bigCluster.cpus.numSquashedInsts         91651                       # Number of squashed instructions skipped in execute (Count)
system.bigCluster.cpus.numSwp                       0                       # Number of swp insts executed (Count)
system.bigCluster.cpus.timesIdled               19422                       # Number of times that the entire CPU went into an idle state and unscheduled itself (Count)
system.bigCluster.cpus.idleCycles             1027137                       # Total number of cycles that the CPU has spent unscheduled due to idling (Cycle)
system.bigCluster.cpus.quiesceCycles          6573178                       # Total number of cycles that CPU has spent quiesced or waiting for an interrupt (Cycle)
system.bigCluster.cpus.MemDepUnit__0.insertedLoads      1322227                       # Number of loads inserted to the mem dependence unit. (Count)
system.bigCluster.cpus.MemDepUnit__0.insertedStores       900587                       # Number of stores inserted to the mem dependence unit. (Count)
system.bigCluster.cpus.MemDepUnit__0.conflictingLoads       176805                       # Number of conflicting loads. (Count)
system.bigCluster.cpus.MemDepUnit__0.conflictingStores        48128                       # Number of conflicting stores. (Count)
system.bigCluster.cpus.MemDepUnit__1.insertedLoads            0                       # Number of loads inserted to the mem dependence unit. (Count)
system.bigCluster.cpus.MemDepUnit__1.insertedStores            0                       # Number of stores inserted to the mem dependence unit. (Count)
system.bigCluster.cpus.MemDepUnit__1.conflictingLoads            0                       # Number of conflicting loads. (Count)
system.bigCluster.cpus.MemDepUnit__1.conflictingStores            0                       # Number of conflicting stores. (Count)
system.bigCluster.cpus.MemDepUnit__2.insertedLoads            0                       # Number of loads inserted to the mem dependence unit. (Count)
system.bigCluster.cpus.MemDepUnit__2.insertedStores            0                       # Number of stores inserted to the mem dependence unit. (Count)
system.bigCluster.cpus.MemDepUnit__2.conflictingLoads            0                       # Number of conflicting loads. (Count)
system.bigCluster.cpus.MemDepUnit__2.conflictingStores            0                       # Number of conflicting stores. (Count)
system.bigCluster.cpus.MemDepUnit__3.insertedLoads            0                       # Number of loads inserted to the mem dependence unit. (Count)
system.bigCluster.cpus.MemDepUnit__3.insertedStores            0                       # Number of stores inserted to the mem dependence unit. (Count)
system.bigCluster.cpus.MemDepUnit__3.conflictingLoads            0                       # Number of conflicting loads. (Count)
system.bigCluster.cpus.MemDepUnit__3.conflictingStores            0                       # Number of conflicting stores. (Count)
system.bigCluster.cpus.bac.fetchTargets             0                       # Number of fetch targets created  (Count)
system.bigCluster.cpus.bac.branches           1570844                       # Number of branches that BAC encountered (Count)
system.bigCluster.cpus.bac.predTakenBranches       794170                       # Number of branches that BAC predicted taken. (Count)
system.bigCluster.cpus.bac.branchesNotLastuOp            0                       # Number of branches that fetch encountered which are not the last uOp within a macrooperation. Jump to itself. (Count)
system.bigCluster.cpus.bac.branchMisspredict        94658                       # Number of mispredicted branches (Count)
system.bigCluster.cpus.bac.noBranchMisspredict         7487                       # Number of non-branch instructions mispredicted (Count)
system.bigCluster.cpus.bac.squashBranchDecode        34267                       # Number of branches squashed from decode (Count)
system.bigCluster.cpus.bac.squashBranchCommit        60391                       # Number of branches squashed from commit (Count)
system.bigCluster.cpus.bac.preDecUpdate::NoBranch            0                       # Number of branches extracted from the predecoder (Count)
system.bigCluster.cpus.bac.preDecUpdate::Return            0                       # Number of branches extracted from the predecoder (Count)
system.bigCluster.cpus.bac.preDecUpdate::CallDirect            0                       # Number of branches extracted from the predecoder (Count)
system.bigCluster.cpus.bac.preDecUpdate::CallIndirect            0                       # Number of branches extracted from the predecoder (Count)
system.bigCluster.cpus.bac.preDecUpdate::DirectCond            0                       # Number of branches extracted from the predecoder (Count)
system.bigCluster.cpus.bac.preDecUpdate::DirectUncond            0                       # Number of branches extracted from the predecoder (Count)
system.bigCluster.cpus.bac.preDecUpdate::IndirectCond            0                       # Number of branches extracted from the predecoder (Count)
system.bigCluster.cpus.bac.preDecUpdate::IndirectUncond            0                       # Number of branches extracted from the predecoder (Count)
system.bigCluster.cpus.bac.preDecUpdate::total            0                       # Number of branches extracted from the predecoder (Count)
system.bigCluster.cpus.bac.noHistByType::NoBranch            0                       # Number and type of branches that were undetected by the BPU. (Count)
system.bigCluster.cpus.bac.noHistByType::Return            0                       # Number and type of branches that were undetected by the BPU. (Count)
system.bigCluster.cpus.bac.noHistByType::CallDirect            0                       # Number and type of branches that were undetected by the BPU. (Count)
system.bigCluster.cpus.bac.noHistByType::CallIndirect            0                       # Number and type of branches that were undetected by the BPU. (Count)
system.bigCluster.cpus.bac.noHistByType::DirectCond            0                       # Number and type of branches that were undetected by the BPU. (Count)
system.bigCluster.cpus.bac.noHistByType::DirectUncond            0                       # Number and type of branches that were undetected by the BPU. (Count)
system.bigCluster.cpus.bac.noHistByType::IndirectCond            0                       # Number and type of branches that were undetected by the BPU. (Count)
system.bigCluster.cpus.bac.noHistByType::IndirectUncond            0                       # Number and type of branches that were undetected by the BPU. (Count)
system.bigCluster.cpus.bac.noHistByType::total            0                       # Number and type of branches that were undetected by the BPU. (Count)
system.bigCluster.cpus.bac.typeMissmatch            0                       # Number branches where the branch type miss match (Count)
system.bigCluster.cpus.bac.multiBranchInst            0                       # Number branches because its not the last branch. (Count)
system.bigCluster.cpus.bac.ftSizeDist::samples            0                       # Number of bytes per fetch target (Count)
system.bigCluster.cpus.bac.ftSizeDist::mean          nan                       # Number of bytes per fetch target (Count)
system.bigCluster.cpus.bac.ftSizeDist::stdev          nan                       # Number of bytes per fetch target (Count)
system.bigCluster.cpus.bac.ftSizeDist::underflows            0                       # Number of bytes per fetch target (Count)
system.bigCluster.cpus.bac.ftSizeDist::0-3            0                       # Number of bytes per fetch target (Count)
system.bigCluster.cpus.bac.ftSizeDist::4-7            0                       # Number of bytes per fetch target (Count)
system.bigCluster.cpus.bac.ftSizeDist::8-11            0                       # Number of bytes per fetch target (Count)
system.bigCluster.cpus.bac.ftSizeDist::12-15            0                       # Number of bytes per fetch target (Count)
system.bigCluster.cpus.bac.ftSizeDist::16-19            0                       # Number of bytes per fetch target (Count)
system.bigCluster.cpus.bac.ftSizeDist::20-23            0                       # Number of bytes per fetch target (Count)
system.bigCluster.cpus.bac.ftSizeDist::24-27            0                       # Number of bytes per fetch target (Count)
system.bigCluster.cpus.bac.ftSizeDist::28-31            0                       # Number of bytes per fetch target (Count)
system.bigCluster.cpus.bac.ftSizeDist::32            0                       # Number of bytes per fetch target (Count)
system.bigCluster.cpus.bac.ftSizeDist::overflows            0                       # Number of bytes per fetch target (Count)
system.bigCluster.cpus.bac.ftSizeDist::min_value            0                       # Number of bytes per fetch target (Count)
system.bigCluster.cpus.bac.ftSizeDist::max_value            0                       # Number of bytes per fetch target (Count)
system.bigCluster.cpus.bac.ftSizeDist::total            0                       # Number of bytes per fetch target (Count)
system.bigCluster.cpus.bac.ftNumber::samples            0                       # Number of fetch target inserted to the FTQ per cycle (Count)
system.bigCluster.cpus.bac.ftNumber::mean          nan                       # Number of fetch target inserted to the FTQ per cycle (Count)
system.bigCluster.cpus.bac.ftNumber::stdev          nan                       # Number of fetch target inserted to the FTQ per cycle (Count)
system.bigCluster.cpus.bac.ftNumber::underflows            0                       # Number of fetch target inserted to the FTQ per cycle (Count)
system.bigCluster.cpus.bac.ftNumber::0              0                       # Number of fetch target inserted to the FTQ per cycle (Count)
system.bigCluster.cpus.bac.ftNumber::1              0                       # Number of fetch target inserted to the FTQ per cycle (Count)
system.bigCluster.cpus.bac.ftNumber::2              0                       # Number of fetch target inserted to the FTQ per cycle (Count)
system.bigCluster.cpus.bac.ftNumber::3              0                       # Number of fetch target inserted to the FTQ per cycle (Count)
system.bigCluster.cpus.bac.ftNumber::4              0                       # Number of fetch target inserted to the FTQ per cycle (Count)
system.bigCluster.cpus.bac.ftNumber::overflows            0                       # Number of fetch target inserted to the FTQ per cycle (Count)
system.bigCluster.cpus.bac.ftNumber::min_value            0                       # Number of fetch target inserted to the FTQ per cycle (Count)
system.bigCluster.cpus.bac.ftNumber::max_value            0                       # Number of fetch target inserted to the FTQ per cycle (Count)
system.bigCluster.cpus.bac.ftNumber::total            0                       # Number of fetch target inserted to the FTQ per cycle (Count)
system.bigCluster.cpus.branchPred.lookups_0::NoBranch          804      0.05%      0.05% # Number of BP lookups (Count)
system.bigCluster.cpus.branchPred.lookups_0::Return       198557     12.64%     12.69% # Number of BP lookups (Count)
system.bigCluster.cpus.branchPred.lookups_0::CallDirect       193370     12.31%     25.00% # Number of BP lookups (Count)
system.bigCluster.cpus.branchPred.lookups_0::CallIndirect        15643      1.00%     26.00% # Number of BP lookups (Count)
system.bigCluster.cpus.branchPred.lookups_0::DirectCond      1054703     67.14%     93.14% # Number of BP lookups (Count)
system.bigCluster.cpus.branchPred.lookups_0::DirectUncond       101970      6.49%     99.63% # Number of BP lookups (Count)
system.bigCluster.cpus.branchPred.lookups_0::IndirectCond            0      0.00%     99.63% # Number of BP lookups (Count)
system.bigCluster.cpus.branchPred.lookups_0::IndirectUncond         5797      0.37%    100.00% # Number of BP lookups (Count)
system.bigCluster.cpus.branchPred.lookups_0::total      1570844                       # Number of BP lookups (Count)
system.bigCluster.cpus.branchPred.squashes_0::NoBranch           28      0.01%      0.01% # Number of branches that got squashed (completely removed) as an earlier branch was mispredicted. (Count)
system.bigCluster.cpus.branchPred.squashes_0::Return        46573     10.44%     10.45% # Number of branches that got squashed (completely removed) as an earlier branch was mispredicted. (Count)
system.bigCluster.cpus.branchPred.squashes_0::CallDirect        54293     12.17%     22.62% # Number of branches that got squashed (completely removed) as an earlier branch was mispredicted. (Count)
system.bigCluster.cpus.branchPred.squashes_0::CallIndirect         2671      0.60%     23.22% # Number of branches that got squashed (completely removed) as an earlier branch was mispredicted. (Count)
system.bigCluster.cpus.branchPred.squashes_0::DirectCond       296822     66.55%     89.77% # Number of branches that got squashed (completely removed) as an earlier branch was mispredicted. (Count)
system.bigCluster.cpus.branchPred.squashes_0::DirectUncond        41253      9.25%     99.02% # Number of branches that got squashed (completely removed) as an earlier branch was mispredicted. (Count)
system.bigCluster.cpus.branchPred.squashes_0::IndirectCond            0      0.00%     99.02% # Number of branches that got squashed (completely removed) as an earlier branch was mispredicted. (Count)
system.bigCluster.cpus.branchPred.squashes_0::IndirectUncond         4392      0.98%    100.00% # Number of branches that got squashed (completely removed) as an earlier branch was mispredicted. (Count)
system.bigCluster.cpus.branchPred.squashes_0::total       446032                       # Number of branches that got squashed (completely removed) as an earlier branch was mispredicted. (Count)
system.bigCluster.cpus.branchPred.corrected_0::NoBranch          650      0.69%      0.69% # Number of branches that got corrected but not yet commited. Branches get corrected by decode or after execute. Also a branch misprediction can be detected out-of-order. Therefore, a corrected branch might not end up beeing committed in case an even earlier branch was mispredicted (Count)
system.bigCluster.cpus.branchPred.corrected_0::Return          978      1.03%      1.72% # Number of branches that got corrected but not yet commited. Branches get corrected by decode or after execute. Also a branch misprediction can be detected out-of-order. Therefore, a corrected branch might not end up beeing committed in case an even earlier branch was mispredicted (Count)
system.bigCluster.cpus.branchPred.corrected_0::CallDirect        23250     24.56%     26.28% # Number of branches that got corrected but not yet commited. Branches get corrected by decode or after execute. Also a branch misprediction can be detected out-of-order. Therefore, a corrected branch might not end up beeing committed in case an even earlier branch was mispredicted (Count)
system.bigCluster.cpus.branchPred.corrected_0::CallIndirect         1517      1.60%     27.88% # Number of branches that got corrected but not yet commited. Branches get corrected by decode or after execute. Also a branch misprediction can be detected out-of-order. Therefore, a corrected branch might not end up beeing committed in case an even earlier branch was mispredicted (Count)
system.bigCluster.cpus.branchPred.corrected_0::DirectCond        56681     59.88%     87.76% # Number of branches that got corrected but not yet commited. Branches get corrected by decode or after execute. Also a branch misprediction can be detected out-of-order. Therefore, a corrected branch might not end up beeing committed in case an even earlier branch was mispredicted (Count)
system.bigCluster.cpus.branchPred.corrected_0::DirectUncond        11017     11.64%     99.40% # Number of branches that got corrected but not yet commited. Branches get corrected by decode or after execute. Also a branch misprediction can be detected out-of-order. Therefore, a corrected branch might not end up beeing committed in case an even earlier branch was mispredicted (Count)
system.bigCluster.cpus.branchPred.corrected_0::IndirectCond            0      0.00%     99.40% # Number of branches that got corrected but not yet commited. Branches get corrected by decode or after execute. Also a branch misprediction can be detected out-of-order. Therefore, a corrected branch might not end up beeing committed in case an even earlier branch was mispredicted (Count)
system.bigCluster.cpus.branchPred.corrected_0::IndirectUncond          565      0.60%    100.00% # Number of branches that got corrected but not yet commited. Branches get corrected by decode or after execute. Also a branch misprediction can be detected out-of-order. Therefore, a corrected branch might not end up beeing committed in case an even earlier branch was mispredicted (Count)
system.bigCluster.cpus.branchPred.corrected_0::total        94658                       # Number of branches that got corrected but not yet commited. Branches get corrected by decode or after execute. Also a branch misprediction can be detected out-of-order. Therefore, a corrected branch might not end up beeing committed in case an even earlier branch was mispredicted (Count)
system.bigCluster.cpus.branchPred.earlyResteers_0::NoBranch            0      0.00%      0.00% # Number of branches that got redirected after decode. (Count)
system.bigCluster.cpus.branchPred.earlyResteers_0::Return            0      0.00%      0.00% # Number of branches that got redirected after decode. (Count)
system.bigCluster.cpus.branchPred.earlyResteers_0::CallDirect        23250     67.85%     67.85% # Number of branches that got redirected after decode. (Count)
system.bigCluster.cpus.branchPred.earlyResteers_0::CallIndirect            0      0.00%     67.85% # Number of branches that got redirected after decode. (Count)
system.bigCluster.cpus.branchPred.earlyResteers_0::DirectCond            0      0.00%     67.85% # Number of branches that got redirected after decode. (Count)
system.bigCluster.cpus.branchPred.earlyResteers_0::DirectUncond        11017     32.15%    100.00% # Number of branches that got redirected after decode. (Count)
system.bigCluster.cpus.branchPred.earlyResteers_0::IndirectCond            0      0.00%    100.00% # Number of branches that got redirected after decode. (Count)
system.bigCluster.cpus.branchPred.earlyResteers_0::IndirectUncond            0      0.00%    100.00% # Number of branches that got redirected after decode. (Count)
system.bigCluster.cpus.branchPred.earlyResteers_0::total        34267                       # Number of branches that got redirected after decode. (Count)
system.bigCluster.cpus.branchPred.committed_0::NoBranch          776      0.07%      0.07% # Number of branches finally committed  (Count)
system.bigCluster.cpus.branchPred.committed_0::Return       151984     13.51%     13.58% # Number of branches finally committed  (Count)
system.bigCluster.cpus.branchPred.committed_0::CallDirect       139077     12.36%     25.95% # Number of branches finally committed  (Count)
system.bigCluster.cpus.branchPred.committed_0::CallIndirect        12972      1.15%     27.10% # Number of branches finally committed  (Count)
system.bigCluster.cpus.branchPred.committed_0::DirectCond       757863     67.38%     94.48% # Number of branches finally committed  (Count)
system.bigCluster.cpus.branchPred.committed_0::DirectUncond        60717      5.40%     99.88% # Number of branches finally committed  (Count)
system.bigCluster.cpus.branchPred.committed_0::IndirectCond            0      0.00%     99.88% # Number of branches finally committed  (Count)
system.bigCluster.cpus.branchPred.committed_0::IndirectUncond         1405      0.12%    100.00% # Number of branches finally committed  (Count)
system.bigCluster.cpus.branchPred.committed_0::total      1124794                       # Number of branches finally committed  (Count)
system.bigCluster.cpus.branchPred.mispredicted_0::NoBranch          650      0.82%      0.82% # Number of committed branches that were mispredicted. (Count)
system.bigCluster.cpus.branchPred.mispredicted_0::Return          568      0.72%      1.54% # Number of committed branches that were mispredicted. (Count)
system.bigCluster.cpus.branchPred.mispredicted_0::CallDirect        16408     20.71%     22.24% # Number of committed branches that were mispredicted. (Count)
system.bigCluster.cpus.branchPred.mispredicted_0::CallIndirect         1459      1.84%     24.08% # Number of committed branches that were mispredicted. (Count)
system.bigCluster.cpus.branchPred.mispredicted_0::DirectCond        51895     65.49%     89.57% # Number of committed branches that were mispredicted. (Count)
system.bigCluster.cpus.branchPred.mispredicted_0::DirectUncond         7753      9.78%     99.35% # Number of committed branches that were mispredicted. (Count)
system.bigCluster.cpus.branchPred.mispredicted_0::IndirectCond            0      0.00%     99.35% # Number of committed branches that were mispredicted. (Count)
system.bigCluster.cpus.branchPred.mispredicted_0::IndirectUncond          513      0.65%    100.00% # Number of committed branches that were mispredicted. (Count)
system.bigCluster.cpus.branchPred.mispredicted_0::total        79246                       # Number of committed branches that were mispredicted. (Count)
system.bigCluster.cpus.branchPred.mispredictDueToPredictor_0::NoBranch          574      1.98%      1.98% # Number of committed branches that were mispredicted by the predictor. (Count)
system.bigCluster.cpus.branchPred.mispredictDueToPredictor_0::Return            0      0.00%      1.98% # Number of committed branches that were mispredicted by the predictor. (Count)
system.bigCluster.cpus.branchPred.mispredictDueToPredictor_0::CallDirect            0      0.00%      1.98% # Number of committed branches that were mispredicted by the predictor. (Count)
system.bigCluster.cpus.branchPred.mispredictDueToPredictor_0::CallIndirect            0      0.00%      1.98% # Number of committed branches that were mispredicted by the predictor. (Count)
system.bigCluster.cpus.branchPred.mispredictDueToPredictor_0::DirectCond        28370     98.02%    100.00% # Number of committed branches that were mispredicted by the predictor. (Count)
system.bigCluster.cpus.branchPred.mispredictDueToPredictor_0::DirectUncond            0      0.00%    100.00% # Number of committed branches that were mispredicted by the predictor. (Count)
system.bigCluster.cpus.branchPred.mispredictDueToPredictor_0::IndirectCond            0      0.00%    100.00% # Number of committed branches that were mispredicted by the predictor. (Count)
system.bigCluster.cpus.branchPred.mispredictDueToPredictor_0::IndirectUncond            0      0.00%    100.00% # Number of committed branches that were mispredicted by the predictor. (Count)
system.bigCluster.cpus.branchPred.mispredictDueToPredictor_0::total        28944                       # Number of committed branches that were mispredicted by the predictor. (Count)
system.bigCluster.cpus.branchPred.mispredictDueToBTBMiss_0::NoBranch           76      0.15%      0.15% # Number of committed branches that were mispredicted because of a BTB miss. (Count)
system.bigCluster.cpus.branchPred.mispredictDueToBTBMiss_0::Return          568      1.13%      1.28% # Number of committed branches that were mispredicted because of a BTB miss. (Count)
system.bigCluster.cpus.branchPred.mispredictDueToBTBMiss_0::CallDirect        16408     32.62%     33.90% # Number of committed branches that were mispredicted because of a BTB miss. (Count)
system.bigCluster.cpus.branchPred.mispredictDueToBTBMiss_0::CallIndirect         1459      2.90%     36.80% # Number of committed branches that were mispredicted because of a BTB miss. (Count)
system.bigCluster.cpus.branchPred.mispredictDueToBTBMiss_0::DirectCond        23525     46.77%     83.57% # Number of committed branches that were mispredicted because of a BTB miss. (Count)
system.bigCluster.cpus.branchPred.mispredictDueToBTBMiss_0::DirectUncond         7753     15.41%     98.98% # Number of committed branches that were mispredicted because of a BTB miss. (Count)
system.bigCluster.cpus.branchPred.mispredictDueToBTBMiss_0::IndirectCond            0      0.00%     98.98% # Number of committed branches that were mispredicted because of a BTB miss. (Count)
system.bigCluster.cpus.branchPred.mispredictDueToBTBMiss_0::IndirectUncond          513      1.02%    100.00% # Number of committed branches that were mispredicted because of a BTB miss. (Count)
system.bigCluster.cpus.branchPred.mispredictDueToBTBMiss_0::total        50302                       # Number of committed branches that were mispredicted because of a BTB miss. (Count)
system.bigCluster.cpus.branchPred.targetProvider_0::NoTarget       776674     49.44%     49.44% # The component providing the target for taken branches (Count)
system.bigCluster.cpus.branchPred.targetProvider_0::BTB       582469     37.08%     86.52% # The component providing the target for taken branches (Count)
system.bigCluster.cpus.branchPred.targetProvider_0::RAS       198557     12.64%     99.16% # The component providing the target for taken branches (Count)
system.bigCluster.cpus.branchPred.targetProvider_0::Indirect        13144      0.84%    100.00% # The component providing the target for taken branches (Count)
system.bigCluster.cpus.branchPred.targetProvider_0::total      1570844                       # The component providing the target for taken branches (Count)
system.bigCluster.cpus.branchPred.targetWrong_0::NoBranch        80470     85.01%     85.01% # Number of branches where the target was incorrect or not available at prediction time. (Count)
system.bigCluster.cpus.branchPred.targetWrong_0::Return        13087     13.83%     98.84% # Number of branches where the target was incorrect or not available at prediction time. (Count)
system.bigCluster.cpus.branchPred.targetWrong_0::CallDirect          978      1.03%     99.87% # Number of branches where the target was incorrect or not available at prediction time. (Count)
system.bigCluster.cpus.branchPred.targetWrong_0::CallIndirect          123      0.13%    100.00% # Number of branches where the target was incorrect or not available at prediction time. (Count)
system.bigCluster.cpus.branchPred.targetWrong_0::DirectCond            0      0.00%    100.00% # Number of branches where the target was incorrect or not available at prediction time. (Count)
system.bigCluster.cpus.branchPred.targetWrong_0::DirectUncond            0      0.00%    100.00% # Number of branches where the target was incorrect or not available at prediction time. (Count)
system.bigCluster.cpus.branchPred.targetWrong_0::IndirectCond            0      0.00%    100.00% # Number of branches where the target was incorrect or not available at prediction time. (Count)
system.bigCluster.cpus.branchPred.targetWrong_0::IndirectUncond            0      0.00%    100.00% # Number of branches where the target was incorrect or not available at prediction time. (Count)
system.bigCluster.cpus.branchPred.targetWrong_0::total        94658                       # Number of branches where the target was incorrect or not available at prediction time. (Count)
system.bigCluster.cpus.branchPred.condPredicted      1054703                       # Number of conditional branches predicted (Count)
system.bigCluster.cpus.branchPred.condPredictedTaken       401283                       # Number of conditional branches predicted as taken (Count)
system.bigCluster.cpus.branchPred.condIncorrect        79246                       # Number of conditional branches incorrect (Count)
system.bigCluster.cpus.branchPred.predTakenBTBMiss        50712                       # Number of branches predicted taken but missed in BTB (Count)
system.bigCluster.cpus.branchPred.BTBLookups      1570844                       # Number of BTB lookups (Count)
system.bigCluster.cpus.branchPred.BTBUpdates        79085                       # Number of BTB updates (Count)
system.bigCluster.cpus.branchPred.BTBHits       777029                       # Number of BTB hits (Count)
system.bigCluster.cpus.branchPred.BTBHitRatio     0.494657                       # BTB Hit Ratio (Ratio)
system.bigCluster.cpus.branchPred.BTBMispredicted        59809                       # Number BTB mispredictions. No target found or target wrong (Count)
system.bigCluster.cpus.branchPred.indirectLookups        21440                       # Number of indirect predictor lookups. (Count)
system.bigCluster.cpus.branchPred.indirectHits        13144                       # Number of indirect target hits. (Count)
system.bigCluster.cpus.branchPred.indirectMisses         8296                       # Number of indirect misses. (Count)
system.bigCluster.cpus.branchPred.indirectMispredicted            0                       # Number of mispredicted indirect branches. (Count)
system.bigCluster.cpus.branchPred.btb.lookups::NoBranch          804      0.05%      0.05% # Number of BTB lookups (Count)
system.bigCluster.cpus.branchPred.btb.lookups::Return       198557     12.64%     12.69% # Number of BTB lookups (Count)
system.bigCluster.cpus.branchPred.btb.lookups::CallDirect       193370     12.31%     25.00% # Number of BTB lookups (Count)
system.bigCluster.cpus.branchPred.btb.lookups::CallIndirect        15643      1.00%     26.00% # Number of BTB lookups (Count)
system.bigCluster.cpus.branchPred.btb.lookups::DirectCond      1054703     67.14%     93.14% # Number of BTB lookups (Count)
system.bigCluster.cpus.branchPred.btb.lookups::DirectUncond       101970      6.49%     99.63% # Number of BTB lookups (Count)
system.bigCluster.cpus.branchPred.btb.lookups::IndirectCond            0      0.00%     99.63% # Number of BTB lookups (Count)
system.bigCluster.cpus.branchPred.btb.lookups::IndirectUncond         5797      0.37%    100.00% # Number of BTB lookups (Count)
system.bigCluster.cpus.branchPred.btb.lookups::total      1570844                       # Number of BTB lookups (Count)
system.bigCluster.cpus.branchPred.btb.misses::NoBranch           80      0.01%      0.01% # Number of BTB misses (Count)
system.bigCluster.cpus.branchPred.btb.misses::Return       198557     25.01%     25.02% # Number of BTB misses (Count)
system.bigCluster.cpus.branchPred.btb.misses::CallDirect        37820      4.76%     29.79% # Number of BTB misses (Count)
system.bigCluster.cpus.branchPred.btb.misses::CallIndirect        15643      1.97%     31.76% # Number of BTB misses (Count)
system.bigCluster.cpus.branchPred.btb.misses::DirectCond       516025     65.01%     96.76% # Number of BTB misses (Count)
system.bigCluster.cpus.branchPred.btb.misses::DirectUncond        19893      2.51%     99.27% # Number of BTB misses (Count)
system.bigCluster.cpus.branchPred.btb.misses::IndirectCond            0      0.00%     99.27% # Number of BTB misses (Count)
system.bigCluster.cpus.branchPred.btb.misses::IndirectUncond         5797      0.73%    100.00% # Number of BTB misses (Count)
system.bigCluster.cpus.branchPred.btb.misses::total       793815                       # Number of BTB misses (Count)
system.bigCluster.cpus.branchPred.btb.updates::NoBranch          650      0.82%      0.82% # Number of BTB updates (Count)
system.bigCluster.cpus.branchPred.btb.updates::Return            0      0.00%      0.82% # Number of BTB updates (Count)
system.bigCluster.cpus.branchPred.btb.updates::CallDirect        23250     29.40%     30.22% # Number of BTB updates (Count)
system.bigCluster.cpus.branchPred.btb.updates::CallIndirect            0      0.00%     30.22% # Number of BTB updates (Count)
system.bigCluster.cpus.branchPred.btb.updates::DirectCond        44168     55.85%     86.07% # Number of BTB updates (Count)
system.bigCluster.cpus.branchPred.btb.updates::DirectUncond        11017     13.93%    100.00% # Number of BTB updates (Count)
system.bigCluster.cpus.branchPred.btb.updates::IndirectCond            0      0.00%    100.00% # Number of BTB updates (Count)
system.bigCluster.cpus.branchPred.btb.updates::IndirectUncond            0      0.00%    100.00% # Number of BTB updates (Count)
system.bigCluster.cpus.branchPred.btb.updates::total        79085                       # Number of BTB updates (Count)
system.bigCluster.cpus.branchPred.btb.mispredict::NoBranch          650      0.82%      0.82% # Number of BTB mispredictions. No target found or target wrong. (Count)
system.bigCluster.cpus.branchPred.btb.mispredict::Return            0      0.00%      0.82% # Number of BTB mispredictions. No target found or target wrong. (Count)
system.bigCluster.cpus.branchPred.btb.mispredict::CallDirect        23250     29.40%     30.22% # Number of BTB mispredictions. No target found or target wrong. (Count)
system.bigCluster.cpus.branchPred.btb.mispredict::CallIndirect            0      0.00%     30.22% # Number of BTB mispredictions. No target found or target wrong. (Count)
system.bigCluster.cpus.branchPred.btb.mispredict::DirectCond        44168     55.85%     86.07% # Number of BTB mispredictions. No target found or target wrong. (Count)
system.bigCluster.cpus.branchPred.btb.mispredict::DirectUncond        11017     13.93%    100.00% # Number of BTB mispredictions. No target found or target wrong. (Count)
system.bigCluster.cpus.branchPred.btb.mispredict::IndirectCond            0      0.00%    100.00% # Number of BTB mispredictions. No target found or target wrong. (Count)
system.bigCluster.cpus.branchPred.btb.mispredict::IndirectUncond            0      0.00%    100.00% # Number of BTB mispredictions. No target found or target wrong. (Count)
system.bigCluster.cpus.branchPred.btb.mispredict::total        79085                       # Number of BTB mispredictions. No target found or target wrong. (Count)
system.bigCluster.cpus.branchPred.btb.power_state.pwrStateResidencyTicks::UNDEFINED 428087529500                       # Cumulative time (in ticks) in various power states (Tick)
system.bigCluster.cpus.branchPred.indirectBranchPred.lookups        21440                       # Number of lookups (Count)
system.bigCluster.cpus.branchPred.indirectBranchPred.hits        13144                       # Number of hits of a tag (Count)
system.bigCluster.cpus.branchPred.indirectBranchPred.misses         8296                       # Number of misses (Count)
system.bigCluster.cpus.branchPred.indirectBranchPred.targetRecords         2082                       # Number of targets that where recorded/installed in the cache (Count)
system.bigCluster.cpus.branchPred.indirectBranchPred.indirectRecords        23522                       # Number of indirect branches/calls recorded in the indirect hist (Count)
system.bigCluster.cpus.branchPred.indirectBranchPred.speculativeOverflows            2                       # Number of times more than the allowed capacity for speculative branches/calls where in flight and destroy the path history (Count)
system.bigCluster.cpus.branchPred.ras.pushes       255586                       # Number of times a PC was pushed onto the RAS (Count)
system.bigCluster.cpus.branchPred.ras.pops       255521                       # Number of times a PC was poped from the RAS (Count)
system.bigCluster.cpus.branchPred.ras.squashes       103537                       # Number of times the stack operation was squashed due to wrong speculation. (Count)
system.bigCluster.cpus.branchPred.ras.used       151984                       # Number of times the RAS is the provider (Count)
system.bigCluster.cpus.branchPred.ras.correct       151416                       # Number of times the RAS is the provider and the prediction is correct (Count)
system.bigCluster.cpus.branchPred.ras.incorrect          568                       # Number of times the RAS is the provider and the prediction is wrong (Count)
system.bigCluster.cpus.commit.status::running      8825486     99.15%     99.15% # Number of cycles commit is running (Cycle)
system.bigCluster.cpus.commit.status::idle            1      0.00%     99.15% # Number of cycles commit is idle (Cycle)
system.bigCluster.cpus.commit.status::robSquashing        63094      0.71%     99.86% # Number of cycles commit is squashing the ROB (Cycle)
system.bigCluster.cpus.commit.status::trapPending        10864      0.12%     99.98% # Number of cycles commit is processing a trap (Cycle)
system.bigCluster.cpus.commit.status::squashAfterPending         1861      0.02%    100.00% # Number of cycles commit is squashing instructions after a pending squash (Cycle)
system.bigCluster.cpus.commit.commitSquashedInsts       718587                       # The number of squashed insts skipped by commit (Count)
system.bigCluster.cpus.commit.commitNonSpecStalls        51738                       # The number of times commit has been forced to stall to communicate backwards (Count)
system.bigCluster.cpus.commit.branchMispredicts        61273                       # The number of times a branch was mispredicted (Count)
system.bigCluster.cpus.commit.numCommittedDist::samples      8770938                       # Number of insts commited each cycle (Count)
system.bigCluster.cpus.commit.numCommittedDist::mean     0.784179                       # Number of insts commited each cycle (Count)
system.bigCluster.cpus.commit.numCommittedDist::stdev     1.718762                       # Number of insts commited each cycle (Count)
system.bigCluster.cpus.commit.numCommittedDist::underflows            0      0.00%      0.00% # Number of insts commited each cycle (Count)
system.bigCluster.cpus.commit.numCommittedDist::0      6226952     71.00%     71.00% # Number of insts commited each cycle (Count)
system.bigCluster.cpus.commit.numCommittedDist::1      1054220     12.02%     83.01% # Number of insts commited each cycle (Count)
system.bigCluster.cpus.commit.numCommittedDist::2       651341      7.43%     90.44% # Number of insts commited each cycle (Count)
system.bigCluster.cpus.commit.numCommittedDist::3       204023      2.33%     92.77% # Number of insts commited each cycle (Count)
system.bigCluster.cpus.commit.numCommittedDist::4       164210      1.87%     94.64% # Number of insts commited each cycle (Count)
system.bigCluster.cpus.commit.numCommittedDist::5        96513      1.10%     95.74% # Number of insts commited each cycle (Count)
system.bigCluster.cpus.commit.numCommittedDist::6        75018      0.86%     96.59% # Number of insts commited each cycle (Count)
system.bigCluster.cpus.commit.numCommittedDist::7        69783      0.80%     97.39% # Number of insts commited each cycle (Count)
system.bigCluster.cpus.commit.numCommittedDist::8       228878      2.61%    100.00% # Number of insts commited each cycle (Count)
system.bigCluster.cpus.commit.numCommittedDist::overflows            0      0.00%    100.00% # Number of insts commited each cycle (Count)
system.bigCluster.cpus.commit.numCommittedDist::min_value            0                       # Number of insts commited each cycle (Count)
system.bigCluster.cpus.commit.numCommittedDist::max_value            8                       # Number of insts commited each cycle (Count)
system.bigCluster.cpus.commit.numCommittedDist::total      8770938                       # Number of insts commited each cycle (Count)
system.bigCluster.cpus.commit.amos                  0                       # Number of atomic instructions committed (Count)
system.bigCluster.cpus.commit.membars           31650                       # Number of memory barriers committed (Count)
system.bigCluster.cpus.commit.committedInstType_0::No_OpClass         2753      0.04%      0.04% # Class of committed instruction (Count)
system.bigCluster.cpus.commit.committedInstType_0::IntAlu      4742099     68.95%     68.99% # Class of committed instruction (Count)
system.bigCluster.cpus.commit.committedInstType_0::IntMult        15455      0.22%     69.21% # Class of committed instruction (Count)
system.bigCluster.cpus.commit.committedInstType_0::IntDiv          825      0.01%     69.22% # Class of committed instruction (Count)
system.bigCluster.cpus.commit.committedInstType_0::FloatAdd            0      0.00%     69.22% # Class of committed instruction (Count)
system.bigCluster.cpus.commit.committedInstType_0::FloatCmp            0      0.00%     69.22% # Class of committed instruction (Count)
system.bigCluster.cpus.commit.committedInstType_0::FloatCvt            0      0.00%     69.22% # Class of committed instruction (Count)
system.bigCluster.cpus.commit.committedInstType_0::FloatMult            0      0.00%     69.22% # Class of committed instruction (Count)
system.bigCluster.cpus.commit.committedInstType_0::FloatMultAcc            0      0.00%     69.22% # Class of committed instruction (Count)
system.bigCluster.cpus.commit.committedInstType_0::FloatDiv            0      0.00%     69.22% # Class of committed instruction (Count)
system.bigCluster.cpus.commit.committedInstType_0::FloatMisc            0      0.00%     69.22% # Class of committed instruction (Count)
system.bigCluster.cpus.commit.committedInstType_0::FloatSqrt            0      0.00%     69.22% # Class of committed instruction (Count)
system.bigCluster.cpus.commit.committedInstType_0::SimdAdd         2445      0.04%     69.26% # Class of committed instruction (Count)
system.bigCluster.cpus.commit.committedInstType_0::SimdAddAcc            0      0.00%     69.26% # Class of committed instruction (Count)
system.bigCluster.cpus.commit.committedInstType_0::SimdAlu         4169      0.06%     69.32% # Class of committed instruction (Count)
system.bigCluster.cpus.commit.committedInstType_0::SimdCmp         2891      0.04%     69.36% # Class of committed instruction (Count)
system.bigCluster.cpus.commit.committedInstType_0::SimdCvt            0      0.00%     69.36% # Class of committed instruction (Count)
system.bigCluster.cpus.commit.committedInstType_0::SimdMisc         2315      0.03%     69.39% # Class of committed instruction (Count)
system.bigCluster.cpus.commit.committedInstType_0::SimdMult            0      0.00%     69.39% # Class of committed instruction (Count)
system.bigCluster.cpus.commit.committedInstType_0::SimdMultAcc            0      0.00%     69.39% # Class of committed instruction (Count)
system.bigCluster.cpus.commit.committedInstType_0::SimdMatMultAcc            0      0.00%     69.39% # Class of committed instruction (Count)
system.bigCluster.cpus.commit.committedInstType_0::SimdShift            0      0.00%     69.39% # Class of committed instruction (Count)
system.bigCluster.cpus.commit.committedInstType_0::SimdShiftAcc            0      0.00%     69.39% # Class of committed instruction (Count)
system.bigCluster.cpus.commit.committedInstType_0::SimdDiv            0      0.00%     69.39% # Class of committed instruction (Count)
system.bigCluster.cpus.commit.committedInstType_0::SimdSqrt            0      0.00%     69.39% # Class of committed instruction (Count)
system.bigCluster.cpus.commit.committedInstType_0::SimdFloatAdd            0      0.00%     69.39% # Class of committed instruction (Count)
system.bigCluster.cpus.commit.committedInstType_0::SimdFloatAlu            0      0.00%     69.39% # Class of committed instruction (Count)
system.bigCluster.cpus.commit.committedInstType_0::SimdFloatCmp            0      0.00%     69.39% # Class of committed instruction (Count)
system.bigCluster.cpus.commit.committedInstType_0::SimdFloatCvt            0      0.00%     69.39% # Class of committed instruction (Count)
system.bigCluster.cpus.commit.committedInstType_0::SimdFloatDiv            0      0.00%     69.39% # Class of committed instruction (Count)
system.bigCluster.cpus.commit.committedInstType_0::SimdFloatMisc            0      0.00%     69.39% # Class of committed instruction (Count)
system.bigCluster.cpus.commit.committedInstType_0::SimdFloatMult            0      0.00%     69.39% # Class of committed instruction (Count)
system.bigCluster.cpus.commit.committedInstType_0::SimdFloatMultAcc            0      0.00%     69.39% # Class of committed instruction (Count)
system.bigCluster.cpus.commit.committedInstType_0::SimdFloatMatMultAcc            0      0.00%     69.39% # Class of committed instruction (Count)
system.bigCluster.cpus.commit.committedInstType_0::SimdFloatSqrt            0      0.00%     69.39% # Class of committed instruction (Count)
system.bigCluster.cpus.commit.committedInstType_0::SimdReduceAdd            0      0.00%     69.39% # Class of committed instruction (Count)
system.bigCluster.cpus.commit.committedInstType_0::SimdReduceAlu            0      0.00%     69.39% # Class of committed instruction (Count)
system.bigCluster.cpus.commit.committedInstType_0::SimdReduceCmp            0      0.00%     69.39% # Class of committed instruction (Count)
system.bigCluster.cpus.commit.committedInstType_0::SimdFloatReduceAdd            0      0.00%     69.39% # Class of committed instruction (Count)
system.bigCluster.cpus.commit.committedInstType_0::SimdFloatReduceCmp            0      0.00%     69.39% # Class of committed instruction (Count)
system.bigCluster.cpus.commit.committedInstType_0::SimdAes            0      0.00%     69.39% # Class of committed instruction (Count)
system.bigCluster.cpus.commit.committedInstType_0::SimdAesMix            0      0.00%     69.39% # Class of committed instruction (Count)
system.bigCluster.cpus.commit.committedInstType_0::SimdSha1Hash            0      0.00%     69.39% # Class of committed instruction (Count)
system.bigCluster.cpus.commit.committedInstType_0::SimdSha1Hash2            0      0.00%     69.39% # Class of committed instruction (Count)
system.bigCluster.cpus.commit.committedInstType_0::SimdSha256Hash            0      0.00%     69.39% # Class of committed instruction (Count)
system.bigCluster.cpus.commit.committedInstType_0::SimdSha256Hash2            0      0.00%     69.39% # Class of committed instruction (Count)
[...]
system.mem_ctrls.bwRead::littleCluster.cpus.data    125145600                       # Total read bandwidth from this memory ((Byte/Second))
system.mem_ctrls.bwRead::total              811123200                       # Total read bandwidth from this memory ((Byte/Second))
system.mem_ctrls.bwInstRead::bigCluster.cpus.inst    136256000                       # Instruction read bandwidth from this memory ((Byte/Second))
system.mem_ctrls.bwInstRead::littleCluster.cpus.inst     36684800                       # Instruction read bandwidth from this memory ((Byte/Second))
system.mem_ctrls.bwInstRead::total          172940800                       # Instruction read bandwidth from this memory ((Byte/Second))
system.mem_ctrls.bwWrite::writebacks        196236800                       # Write bandwidth from this memory ((Byte/Second))
system.mem_ctrls.bwWrite::total             196236800                       # Write bandwidth from this memory ((Byte/Second))
system.mem_ctrls.bwTotal::writebacks        196236800                       # Total bandwidth to/from this memory ((Byte/Second))
system.mem_ctrls.bwTotal::bigCluster.cpus.mmu.walker      4198400                       # Total bandwidth to/from this memory ((Byte/Second))
system.mem_ctrls.bwTotal::bigCluster.cpus.inst    136256000                       # Total bandwidth to/from this memory ((Byte/Second))
system.mem_ctrls.bwTotal::bigCluster.cpus.data    507200000                       # Total bandwidth to/from this memory ((Byte/Second))
system.mem_ctrls.bwTotal::littleCluster.cpus.mmu.walker      1638400                       # Total bandwidth to/from this memory ((Byte/Second))
system.mem_ctrls.bwTotal::littleCluster.cpus.inst     36684800                       # Total bandwidth to/from this memory ((Byte/Second))
system.mem_ctrls.bwTotal::littleCluster.cpus.data    125145600                       # Total bandwidth to/from this memory ((Byte/Second))
system.mem_ctrls.bwTotal::total            1007360000                       # Total bandwidth to/from this memory ((Byte/Second))
system.mem_ctrls.power_state.pwrStateResidencyTicks::UNDEFINED   5000000000                       # Cumulative time (in ticks) in various power states (Tick)
system.membus.transDist::ReadReq                  136                       # Transaction distribution (Count)
system.membus.transDist::ReadResp               63819                       # Transaction distribution (Count)
system.membus.transDist::WriteReq                 145                       # Transaction distribution (Count)
system.membus.transDist::WriteResp                145                       # Transaction distribution (Count)
system.membus.transDist::WritebackDirty         15331                       # Transaction distribution (Count)
system.membus.transDist::CleanEvict             57063                       # Transaction distribution (Count)
system.membus.transDist::UpgradeReq              4287                       # Transaction distribution (Count)
system.membus.transDist::UpgradeResp             2710                       # Transaction distribution (Count)
system.membus.transDist::ReadExReq               8147                       # Transaction distribution (Count)
system.membus.transDist::ReadExResp              8147                       # Transaction distribution (Count)
system.membus.transDist::ReadCleanReq           63684                       # Transaction distribution (Count)
system.membus.transDist::InvalidateReq           7752                       # Transaction distribution (Count)
system.membus.transDist::InvalidateResp           767                       # Transaction distribution (Count)
system.membus.pktCount_system.bigCluster.l2.mem_side_port::system.mem_ctrls.port       174261                       # Packet count per connected requestor and responder (Count)
system.membus.pktCount_system.bigCluster.l2.mem_side_port::system.iobridge.cpu_side_port          112                       # Packet count per connected requestor and responder (Count)
system.membus.pktCount_system.bigCluster.l2.mem_side_port::total       174373                       # Packet count per connected requestor and responder (Count)
system.membus.pktCount_system.littleCluster.l2.mem_side_port::system.mem_ctrls.port        45371                       # Packet count per connected requestor and responder (Count)
system.membus.pktCount_system.littleCluster.l2.mem_side_port::system.iobridge.cpu_side_port          450                       # Packet count per connected requestor and responder (Count)
system.membus.pktCount_system.littleCluster.l2.mem_side_port::total        45821                       # Packet count per connected requestor and responder (Count)
system.membus.pktCount::total                  220194                       # Packet count per connected requestor and responder (Count)
system.membus.pktSize_system.bigCluster.l2.mem_side_port::system.mem_ctrls.port      4044864                       # Cumulative packet size per connected requestor and responder (Byte)
system.membus.pktSize_system.bigCluster.l2.mem_side_port::system.iobridge.cpu_side_port           84                       # Cumulative packet size per connected requestor and responder (Byte)
system.membus.pktSize_system.bigCluster.l2.mem_side_port::total      4044948                       # Cumulative packet size per connected requestor and responder (Byte)
system.membus.pktSize_system.littleCluster.l2.mem_side_port::system.mem_ctrls.port       991872                       # Cumulative packet size per connected requestor and responder (Byte)
system.membus.pktSize_system.littleCluster.l2.mem_side_port::system.iobridge.cpu_side_port          450                       # Cumulative packet size per connected requestor and responder (Byte)
system.membus.pktSize_system.littleCluster.l2.mem_side_port::total       992322                       # Cumulative packet size per connected requestor and responder (Byte)
system.membus.pktSize::total                  5037270                       # Cumulative packet size per connected requestor and responder (Byte)
system.membus.snoops                            11939                       # Total snoops (Count)
system.membus.snoopTraffic                     541568                       # Total snoop traffic (Byte)
system.membus.snoopFanout::samples              92351                       # Request fanout histogram (Count)
system.membus.snoopFanout::mean              0.249613                       # Request fanout histogram (Count)
system.membus.snoopFanout::stdev             0.432791                       # Request fanout histogram (Count)
system.membus.snoopFanout::underflows               0      0.00%      0.00% # Request fanout histogram (Count)
system.membus.snoopFanout::0                    69299     75.04%     75.04% # Request fanout histogram (Count)
system.membus.snoopFanout::1                    23052     24.96%    100.00% # Request fanout histogram (Count)
system.membus.snoopFanout::2                        0      0.00%    100.00% # Request fanout histogram (Count)
system.membus.snoopFanout::3                        0      0.00%    100.00% # Request fanout histogram (Count)
system.membus.snoopFanout::overflows                0      0.00%    100.00% # Request fanout histogram (Count)
system.membus.snoopFanout::min_value                0                       # Request fanout histogram (Count)
system.membus.snoopFanout::max_value                1                       # Request fanout histogram (Count)
system.membus.snoopFanout::total                92351                       # Request fanout histogram (Count)
system.membus.badaddr_responder.power_state.pwrStateResidencyTicks::UNDEFINED   5000000000                       # Cumulative time (in ticks) in various power states (Tick)
system.membus.power_state.pwrStateResidencyTicks::UNDEFINED   5000000000                       # Cumulative time (in ticks) in various power states (Tick)
system.membus.reqLayer0.occupancy           291954793                       # Layer occupancy (ticks) (Tick)
system.membus.reqLayer0.utilization               0.1                       # Layer utilization (Ratio)
system.membus.reqLayer1.occupancy              466835                       # Layer occupancy (ticks) (Tick)
system.membus.reqLayer1.utilization               0.0                       # Layer utilization (Ratio)
system.membus.respLayer2.occupancy          296207683                       # Layer occupancy (ticks) (Tick)
system.membus.respLayer2.utilization              0.1                       # Layer utilization (Ratio)
system.membus.respLayer3.occupancy           77753005                       # Layer occupancy (ticks) (Tick)
system.membus.respLayer3.utilization              0.0                       # Layer utilization (Ratio)
system.membus.snoop_filter.totRequests         167401                       # Total number of requests made to the snoop filter. (Count)
system.membus.snoop_filter.hitSingleRequests        82010                       # Number of requests hitting in the snoop filter with a single holder of the requested data. (Count)
system.membus.snoop_filter.hitMultiRequests        17806                       # Number of requests hitting in the snoop filter with multiple (>1) holders of the requested data. (Count)
system.membus.snoop_filter.totSnoops                0                       # Total number of snoops made to the snoop filter. (Count)
system.membus.snoop_filter.hitSingleSnoops            0                       # Number of snoops hitting in the snoop filter with a single holder of the requested data. (Count)
system.membus.snoop_filter.hitMultiSnoops            0                       # Number of snoops hitting in the snoop filter with multiple (>1) holders of the requested data. (Count)
system.pci_vio_block.power_state.pwrStateResidencyTicks::UNDEFINED   5000000000                       # Cumulative time (in ticks) in various power states (Tick)
system.realview.bootmem.power_state.pwrStateResidencyTicks::UNDEFINED   5000000000                       # Cumulative time (in ticks) in various power states (Tick)
system.realview.clcd.power_state.pwrStateResidencyTicks::UNDEFINED   5000000000                       # Cumulative time (in ticks) in various power states (Tick)
system.realview.clock24MHz.clock                41667                       # Clock period in ticks (Tick)
system.realview.clock32KHz.clock             31250000                       # Clock period in ticks (Tick)
system.realview.dcc.osc_cpu.clock               16667                       # Clock period in ticks (Tick)
system.realview.dcc.osc_ddr.clock               25000                       # Clock period in ticks (Tick)
system.realview.dcc.osc_hsbm.clock              25000                       # Clock period in ticks (Tick)
system.realview.dcc.osc_pxl.clock               42105                       # Clock period in ticks (Tick)
system.realview.dcc.osc_smb.clock               20000                       # Clock period in ticks (Tick)
system.realview.dcc.osc_sys.clock               16667                       # Clock period in ticks (Tick)
system.realview.el2_watchdog.power_state.pwrStateResidencyTicks::UNDEFINED   5000000000                       # Cumulative time (in ticks) in various power states (Tick)
system.realview.energy_ctrl.power_state.pwrStateResidencyTicks::UNDEFINED   5000000000                       # Cumulative time (in ticks) in various power states (Tick)
system.realview.flash0.power_state.pwrStateResidencyTicks::UNDEFINED   5000000000                       # Cumulative time (in ticks) in various power states (Tick)
system.realview.flash1.power_state.pwrStateResidencyTicks::UNDEFINED   5000000000                       # Cumulative time (in ticks) in various power states (Tick)
system.realview.generic_timer_mem.frames0.power_state.pwrStateResidencyTicks::UNDEFINED   5000000000                       # Cumulative time (in ticks) in various power states (Tick)
system.realview.generic_timer_mem.frames1.power_state.pwrStateResidencyTicks::UNDEFINED   5000000000                       # Cumulative time (in ticks) in various power states (Tick)
system.realview.generic_timer_mem.power_state.pwrStateResidencyTicks::UNDEFINED   5000000000                       # Cumulative time (in ticks) in various power states (Tick)
system.realview.gic.power_state.pwrStateResidencyTicks::UNDEFINED   5000000000                       # Cumulative time (in ticks) in various power states (Tick)
system.realview.io_voltage.voltage           3.300000                       # Voltage in Volts (Volt)
system.realview.kmi0.power_state.pwrStateResidencyTicks::UNDEFINED   5000000000                       # Cumulative time (in ticks) in various power states (Tick)
system.realview.kmi1.power_state.pwrStateResidencyTicks::UNDEFINED   5000000000                       # Cumulative time (in ticks) in various power states (Tick)
system.realview.mcc.osc_clcd.clock              42105                       # Clock period in ticks (Tick)
system.realview.mcc.osc_mcc.clock               20000                       # Clock period in ticks (Tick)
system.realview.mcc.osc_peripheral.clock        41667                       # Clock period in ticks (Tick)
system.realview.mcc.osc_system_bus.clock        41667                       # Clock period in ticks (Tick)
system.realview.non_trusted_sram.power_state.pwrStateResidencyTicks::UNDEFINED   5000000000                       # Cumulative time (in ticks) in various power states (Tick)
system.realview.pci_bus.transDist::ReadReq           28                       # Transaction distribution (Count)
system.realview.pci_bus.transDist::ReadResp           28                       # Transaction distribution (Count)
system.realview.pci_bus.transDist::WriteReq           28                       # Transaction distribution (Count)
system.realview.pci_bus.transDist::WriteResp           28                       # Transaction distribution (Count)
system.realview.pci_bus.pktCount_system.realview.pci_host.up_to_down.mem_side_port::system.pci_vio_block.pio          112                       # Packet count per connected requestor and responder (Count)
system.realview.pci_bus.pktCount_system.realview.pci_host.up_to_down.mem_side_port::total          112                       # Packet count per connected requestor and responder (Count)
system.realview.pci_bus.pktCount::total           112                       # Packet count per connected requestor and responder (Count)
system.realview.pci_bus.pktSize_system.realview.pci_host.up_to_down.mem_side_port::system.pci_vio_block.pio           84                       # Cumulative packet size per connected requestor and responder (Byte)
system.realview.pci_bus.pktSize_system.realview.pci_host.up_to_down.mem_side_port::total           84                       # Cumulative packet size per connected requestor and responder (Byte)
system.realview.pci_bus.pktSize::total             84                       # Cumulative packet size per connected requestor and responder (Byte)
system.realview.pci_bus.power_state.pwrStateResidencyTicks::UNDEFINED   5000000000                       # Cumulative time (in ticks) in various power states (Tick)
system.realview.pci_bus.reqLayer0.occupancy       116335                       # Layer occupancy (ticks) (Tick)
system.realview.pci_bus.reqLayer0.utilization          0.0                       # Layer utilization (Ratio)
system.realview.pci_bus.respLayer0.occupancy        84000                       # Layer occupancy (ticks) (Tick)
system.realview.pci_bus.respLayer0.utilization          0.0                       # Layer utilization (Ratio)
system.realview.pci_host.config_error.power_state.pwrStateResidencyTicks::UNDEFINED   5000000000                       # Cumulative time (in ticks) in various power states (Tick)
system.realview.pci_host.down_to_up.power_state.pwrStateResidencyTicks::UNDEFINED   5000000000                       # Cumulative time (in ticks) in various power states (Tick)
system.realview.pci_host.power_state.pwrStateResidencyTicks::UNDEFINED   5000000000                       # Cumulative time (in ticks) in various power states (Tick)
system.realview.pci_host.up_to_down.power_state.pwrStateResidencyTicks::UNDEFINED   5000000000                       # Cumulative time (in ticks) in various power states (Tick)
system.realview.pwr_ctrl.power_state.pwrStateResidencyTicks::UNDEFINED   5000000000                       # Cumulative time (in ticks) in various power states (Tick)
system.realview.realview_io.power_state.pwrStateResidencyTicks::UNDEFINED   5000000000                       # Cumulative time (in ticks) in various power states (Tick)
system.realview.rtc.power_state.pwrStateResidencyTicks::UNDEFINED   5000000000                       # Cumulative time (in ticks) in various power states (Tick)
system.realview.sp810_fake.power_state.pwrStateResidencyTicks::UNDEFINED   5000000000                       # Cumulative time (in ticks) in various power states (Tick)
system.realview.system_watchdog.power_state.pwrStateResidencyTicks::UNDEFINED   5000000000                       # Cumulative time (in ticks) in various power states (Tick)
system.realview.trusted_dram.power_state.pwrStateResidencyTicks::UNDEFINED   5000000000                       # Cumulative time (in ticks) in various power states (Tick)
system.realview.trusted_sram.power_state.pwrStateResidencyTicks::UNDEFINED   5000000000                       # Cumulative time (in ticks) in various power states (Tick)
system.realview.trusted_watchdog.power_state.pwrStateResidencyTicks::UNDEFINED   5000000000                       # Cumulative time (in ticks) in various power states (Tick)
system.realview.uart0.power_state.pwrStateResidencyTicks::UNDEFINED   5000000000                       # Cumulative time (in ticks) in various power states (Tick)
system.realview.uart1.power_state.pwrStateResidencyTicks::UNDEFINED   5000000000                       # Cumulative time (in ticks) in various power states (Tick)
system.realview.uart2.power_state.pwrStateResidencyTicks::UNDEFINED   5000000000                       # Cumulative time (in ticks) in various power states (Tick)
system.realview.uart3.power_state.pwrStateResidencyTicks::UNDEFINED   5000000000                       # Cumulative time (in ticks) in various power states (Tick)
system.realview.vio0.power_state.pwrStateResidencyTicks::UNDEFINED   5000000000                       # Cumulative time (in ticks) in various power states (Tick)
system.realview.vio1.power_state.pwrStateResidencyTicks::UNDEFINED   5000000000                       # Cumulative time (in ticks) in various power states (Tick)
system.realview.vram.power_state.pwrStateResidencyTicks::UNDEFINED   5000000000                       # Cumulative time (in ticks) in various power states (Tick)
system.realview.watchdog.power_state.pwrStateResidencyTicks::UNDEFINED   5000000000                       # Cumulative time (in ticks) in various power states (Tick)
system.thermal_model.power_state.pwrStateResidencyTicks::UNDEFINED   5000000000                       # Cumulative time (in ticks) in various power states (Tick)
system.voltage_domain.voltage                       1                       # Voltage in Volts (Volt)
system.workload.inst.arm                            0                       # number of arm instructions executed (Count)
system.workload.inst.quiesce                       55                       # number of quiesce instructions executed (Count)
system.littleCluster.cpus.idleCycles          1752179                       # Total number of cycles that the object has spent stopped (Unspecified)
system.littleCluster.cpus.tickCycles          2633102                       # Number of cycles that the object actually ticked (Unspecified)

---------- End Simulation Statistics   ----------
