
---------- Begin Simulation Statistics ----------
simSeconds                                   0.100000                       # Number of seconds simulated (Second)
simTicks                                 100000000000                       # Number of ticks simulated (Tick)
finalTick                                100000000000                       # Number of ticks from beginning of simulation (restored from checkpoints and never reset) (Tick)
simFreq                                  1000000000000                       # The number of ticks per simulated second ((Tick/Second))
hostSeconds                                    579.85                       # Real time elapsed on the host (Second)
hostTickRate                                172457811                       # The number of ticks simulated per host second (ticks/s) ((Tick/Second))
hostMemory                                    3021320                       # Number of bytes of host memory used (Byte)
simInsts                                    182860353                       # Number of instructions simulated (Count)
simOps                                      193273060                       # Number of ops (including micro ops) simulated (Count)
hostInstRate                                   315357                       # Simulator instruction rate (inst/s) ((Count/Second))
hostOpRate                                     333314                       # Simulator op (including micro ops) rate (op/s) ((Count/Second))
system.bigCluster.clk_domain.clock                303                       # Clock period in ticks (Tick)
system.bigCluster.cpus.numCycles            283725782                       # Number of cpu cycles simulated (Cycle)
system.bigCluster.cpus.cpi                   1.580726                       # CPI: cycles per instruction (core level) ((Cycle/Count))
system.bigCluster.cpus.ipc                   0.632621                       # IPC: instructions per cycle (core level) ((Count/Cycle))
system.bigCluster.cpus.numWorkItemsStarted            0                       # Number of work items this cpu started (Count)
system.bigCluster.cpus.numWorkItemsCompleted            0                       # Number of work items this cpu completed (Count)
system.bigCluster.cpus.instsAdded           201991319                       # Number of instructions added to the IQ (excludes non-spec) (Count)
system.bigCluster.cpus.nonSpecInstsAdded      1284021                       # Number of non-speculative instructions added to the IQ (Count)
system.bigCluster.cpus.instsIssued          199237188                       # Number of instructions issued (Count)
system.bigCluster.cpus.squashedInstsIssued       650446                       # Number of squashed instructions issued (Count)
system.bigCluster.cpus.squashedInstsExamined     14800704                       # Number of squashed instructions iterated over during squash; mainly for profiling (Count)
system.bigCluster.cpus.squashedOperandsExamined     10361326                       # Number of squashed operands that are examined and possibly removed from graph (Count)
system.bigCluster.cpus.squashedNonSpecRemoved        52652                       # Number of squashed non-spec instructions that were removed (Count)
system.bigCluster.cpus.numIssuedDist::samples    280281933                       # Number of insts issued each cycle (Count)
system.bigCluster.cpus.numIssuedDist::mean     0.710846                       # Number of insts issued each cycle (Count)
system.bigCluster.cpus.numIssuedDist::stdev     0.995652                       # Number of insts issued each cycle (Count)
system.bigCluster.cpus.numIssuedDist::underflows            0      0.00%      0.00% # Number of insts issued each cycle (Count)
system.bigCluster.cpus.numIssuedDist::0     169380796     60.43%     60.43% # Number of insts issued each cycle (Count)
system.bigCluster.cpus.numIssuedDist::1      42642038     15.21%     75.65% # Number of insts issued each cycle (Count)
system.bigCluster.cpus.numIssuedDist::2      49883042     17.80%     93.44% # Number of insts issued each cycle (Count)
system.bigCluster.cpus.numIssuedDist::3      16681057      5.95%     99.40% # Number of insts issued each cycle (Count)
system.bigCluster.cpus.numIssuedDist::4       1689105      0.60%    100.00% # Number of insts issued each cycle (Count)
system.bigCluster.cpus.numIssuedDist::5          5895      0.00%    100.00% # Number of insts issued each cycle (Count)
system.bigCluster.cpus.numIssuedDist::6             0      0.00%    100.00% # Number of insts issued each cycle (Count)
system.bigCluster.cpus.numIssuedDist::7             0      0.00%    100.00% # Number of insts issued each cycle (Count)
system.bigCluster.cpus.numIssuedDist::8             0      0.00%    100.00% # Number of insts issued each cycle (Count)
system.bigCluster.cpus.numIssuedDist::overflows            0      0.00%    100.00% # Number of insts issued each cycle (Count)
system.bigCluster.cpus.numIssuedDist::min_value            0                       # Number of insts issued each cycle (Count)
system.bigCluster.cpus.numIssuedDist::max_value            5                       # Number of insts issued each cycle (Count)
system.bigCluster.cpus.numIssuedDist::total    280281933                       # Number of insts issued each cycle (Count)
system.bigCluster.cpus.statFuBusy::No_OpClass            0      0.00%      0.00% # attempts to use FU when none available (Count)
system.bigCluster.cpus.statFuBusy::IntAlu     25293958     66.43%     66.43% # attempts to use FU when none available (Count)
system.bigCluster.cpus.statFuBusy::IntMult         6361      0.02%     66.45% # attempts to use FU when none available (Count)
system.bigCluster.cpus.statFuBusy::IntDiv        23493      0.06%     66.51% # attempts to use FU when none available (Count)
system.bigCluster.cpus.statFuBusy::FloatAdd            0      0.00%     66.51% # attempts to use FU when none available (Count)
system.bigCluster.cpus.statFuBusy::FloatCmp            0      0.00%     66.51% # attempts to use FU when none available (Count)
system.bigCluster.cpus.statFuBusy::FloatCvt            0      0.00%     66.51% # attempts to use FU when none available (Count)
system.bigCluster.cpus.statFuBusy::FloatMult            0      0.00%     66.51% # attempts to use FU when none available (Count)
system.bigCluster.cpus.statFuBusy::FloatMultAcc            0      0.00%     66.51% # attempts to use FU when none available (Count)
system.bigCluster.cpus.statFuBusy::FloatDiv            0      0.00%     66.51% # attempts to use FU when none available (Count)
system.bigCluster.cpus.statFuBusy::FloatMisc            0      0.00%     66.51% # attempts to use FU when none available (Count)
system.bigCluster.cpus.statFuBusy::FloatSqrt            0      0.00%     66.51% # attempts to use FU when none available (Count)
system.bigCluster.cpus.statFuBusy::SimdAdd            0      0.00%     66.51% # attempts to use FU when none available (Count)
system.bigCluster.cpus.statFuBusy::SimdAddAcc            0      0.00%     66.51% # attempts to use FU when none available (Count)
system.bigCluster.cpus.statFuBusy::SimdAlu            0      0.00%     66.51% # attempts to use FU when none available (Count)
system.bigCluster.cpus.statFuBusy::SimdCmp            0      0.00%     66.51% # attempts to use FU when none available (Count)
system.bigCluster.cpus.statFuBusy::SimdCvt            0      0.00%     66.51% # attempts to use FU when none available (Count)
system.bigCluster.cpus.statFuBusy::SimdMisc            0      0.00%     66.51% # attempts to use FU when none available (Count)
system.bigCluster.cpus.statFuBusy::SimdMult            0      0.00%     66.51% # attempts to use FU when none available (Count)
system.bigCluster.cpus.statFuBusy::SimdMultAcc            0      0.00%     66.51% # attempts to use FU when none available (Count)
system.bigCluster.cpus.statFuBusy::SimdMatMultAcc            0      0.00%     66.51% # attempts to use FU when none available (Count)
system.bigCluster.cpus.statFuBusy::SimdShift            0      0.00%     66.51% # attempts to use FU when none available (Count)
system.bigCluster.cpus.statFuBusy::SimdShiftAcc            0      0.00%     66.51% # attempts to use FU when none available (Count)
system.bigCluster.cpus.statFuBusy::SimdDiv            0      0.00%     66.51% # attempts to use FU when none available (Count)
system.bigCluster.cpus.statFuBusy::SimdSqrt            0      0.00%     66.51% # attempts to use FU when none available (Count)
system.bigCluster.cpus.statFuBusy::SimdFloatAdd            0      0.00%     66.51% # attempts to use FU when none available (Count)
system.bigCluster.cpus.statFuBusy::SimdFloatAlu            0      0.00%     66.51% # attempts to use FU when none available (Count)
system.bigCluster.cpus.statFuBusy::SimdFloatCmp            0      0.00%     66.51% # attempts to use FU when none available (Count)
system.bigCluster.cpus.statFuBusy::SimdFloatCvt            0      0.00%     66.51% # attempts to use FU when none available (Count)
system.bigCluster.cpus.statFuBusy::SimdFloatDiv            0      0.00%     66.51% # attempts to use FU when none available (Count)
system.bigCluster.cpus.statFuBusy::SimdFloatMisc            0      0.00%     66.51% # attempts to use FU when none available (Count)
system.bigCluster.cpus.statFuBusy::SimdFloatMult            0      0.00%     66.51% # attempts to use FU when none available (Count)
system.bigCluster.cpus.statFuBusy::SimdFloatMultAcc            0      0.00%     66.51% # attempts to use FU when none available (Count)
system.bigCluster.cpus.statFuBusy::SimdFloatMatMultAcc            0      0.00%     66.51% # attempts to use FU when none available (Count)
system.bigCluster.cpus.statFuBusy::SimdFloatSqrt            0      0.00%     66.51% # attempts to use FU when none available (Count)
system.bigCluster.cpus.statFuBusy::SimdReduceAdd            0      0.00%     66.51% # attempts to use FU when none available (Count)
system.bigCluster.cpus.statFuBusy::SimdReduceAlu            0      0.00%     66.51% # attempts to use FU when none available (Count)
system.bigCluster.cpus.statFuBusy::SimdReduceCmp            0      0.00%     66.51% # attempts to use FU when none available (Count)
system.bigCluster.cpus.statFuBusy::SimdFloatReduceAdd            0      0.00%     66.51% # attempts to use FU when none available (Count)
system.bigCluster.cpus.statFuBusy::SimdFloatReduceCmp            0      0.00%     66.51% # attempts to use FU when none available (Count)
system.bigCluster.cpus.statFuBusy::SimdAes            0      0.00%     66.51% # attempts to use FU when none available (Count)
system.bigCluster.cpus.statFuBusy::SimdAesMix            0      0.00%     66.51% # attempts to use FU when none available (Count)
system.bigCluster.cpus.statFuBusy::SimdSha1Hash            0      0.00%     66.51% # attempts to use FU when none available (Count)
system.bigCluster.cpus.statFuBusy::SimdSha1Hash2            0      0.00%     66.51% # attempts to use FU when none available (Count)
system.bigCluster.cpus.statFuBusy::SimdSha256Hash            0      0.00%     66.51% # attempts to use FU when none available (Count)
system.bigCluster.cpus.statFuBusy::SimdSha256Hash2            0      0.00%     66.51% # attempts to use FU when none available (Count)
system.bigCluster.cpus.statFuBusy::SimdShaSigma2            0      0.00%     66.51% # attempts to use FU when none available (Count)
system.bigCluster.cpus.statFuBusy::SimdShaSigma3            0      0.00%     66.51% # attempts to use FU when none available (Count)
system.bigCluster.cpus.statFuBusy::SimdSha3            0      0.00%     66.51% # attempts to use FU when none available (Count)
system.bigCluster.cpus.statFuBusy::SimdSm4e            0      0.00%     66.51% # attempts to use FU when none available (Count)
system.bigCluster.cpus.statFuBusy::SimdCrc            0      0.00%     66.51% # attempts to use FU when none available (Count)
system.bigCluster.cpus.statFuBusy::SimdPredAlu            0      0.00%     66.51% # attempts to use FU when none available (Count)
system.bigCluster.cpus.statFuBusy::SimdDotProd            0      0.00%     66.51% # attempts to use FU when none available (Count)
system.bigCluster.cpus.statFuBusy::Matrix            0      0.00%     66.51% # attempts to use FU when none available (Count)
system.bigCluster.cpus.statFuBusy::MatrixMov            0      0.00%     66.51% # attempts to use FU when none available (Count)
system.bigCluster.cpus.statFuBusy::MatrixOP            0      0.00%     66.51% # attempts to use FU when none available (Count)
system.bigCluster.cpus.statFuBusy::MemRead      8427549     22.13%     88.65% # attempts to use FU when none available (Count)
system.bigCluster.cpus.statFuBusy::MemWrite      4299731     11.29%     99.94% # attempts to use FU when none available (Count)
system.bigCluster.cpus.statFuBusy::FloatMemRead            0      0.00%     99.94% # attempts to use FU when none available (Count)
system.bigCluster.cpus.statFuBusy::FloatMemWrite            0      0.00%     99.94% # attempts to use FU when none available (Count)
system.bigCluster.cpus.statFuBusy::InstPrefetch            0      0.00%     99.94% # attempts to use FU when none available (Count)
system.bigCluster.cpus.statFuBusy::SimdUnitStrideLoad            0      0.00%     99.94% # attempts to use FU when none available (Count)
system.bigCluster.cpus.statFuBusy::SimdUnitStrideStore            0      0.00%     99.94% # attempts to use FU when none available (Count)
system.bigCluster.cpus.statFuBusy::SimdUnitStrideMaskLoad            0      0.00%     99.94% # attempts to use FU when none available (Count)
system.bigCluster.cpus.statFuBusy::SimdUnitStrideMaskStore            0      0.00%     99.94% # attempts to use FU when none available (Count)
system.bigCluster.cpus.statFuBusy::SimdStridedLoad            0      0.00%     99.94% # attempts to use FU when none available (Count)
system.bigCluster.cpus.statFuBusy::SimdStridedStore            0      0.00%     99.94% # attempts to use FU when none available (Count)
system.bigCluster.cpus.statFuBusy::SimdIndexedLoad            0      0.00%     99.94% # attempts to use FU when none available (Count)
system.bigCluster.cpus.statFuBusy::SimdIndexedStore            0      0.00%     99.94% # attempts to use FU when none available (Count)
system.bigCluster.cpus.statFuBusy::SimdWholeRegisterLoad            0      0.00%     99.94% # attempts to use FU when none available (Count)
system.bigCluster.cpus.statFuBusy::SimdWholeRegisterStore            0      0.00%     99.94% # attempts to use FU when none available (Count)
system.bigCluster.cpus.statFuBusy::SimdUnitStrideFaultOnlyFirstLoad            0      0.00%     99.94% # attempts to use FU when none available (Count)
system.bigCluster.cpus.statFuBusy::SimdUnitStrideSegmentedLoad            0      0.00%     99.94% # attempts to use FU when none available (Count)
system.bigCluster.cpus.statFuBusy::SimdUnitStrideSegmentedStore            0      0.00%     99.94% # attempts to use FU when none available (Count)
system.bigCluster.cpus.statFuBusy::SimdUnitStrideSegmentedFaultOnlyFirstLoad            0      0.00%     99.94% # attempts to use FU when none available (Count)
system.bigCluster.cpus.statFuBusy::SimdStrideSegmentedLoad            0      0.00%     99.94% # attempts to use FU when none available (Count)
system.bigCluster.cpus.statFuBusy::SimdStrideSegmentedStore            0      0.00%     99.94% # attempts to use FU when none available (Count)
system.bigCluster.cpus.statFuBusy::SimdExt            0      0.00%     99.94% # attempts to use FU when none available (Count)
system.bigCluster.cpus.statFuBusy::SimdFloatExt            0      0.00%     99.94% # attempts to use FU when none available (Count)
system.bigCluster.cpus.statFuBusy::SimdConfig            0      0.00%     99.94% # attempts to use FU when none available (Count)
system.bigCluster.cpus.statFuBusy::SimdBf16Add            0      0.00%     99.94% # attempts to use FU when none available (Count)
system.bigCluster.cpus.statFuBusy::SimdBf16Cmp            0      0.00%     99.94% # attempts to use FU when none available (Count)
system.bigCluster.cpus.statFuBusy::SimdBf16Cvt            0      0.00%     99.94% # attempts to use FU when none available (Count)
system.bigCluster.cpus.statFuBusy::SimdBf16DotProd            0      0.00%     99.94% # attempts to use FU when none available (Count)
system.bigCluster.cpus.statFuBusy::SimdBf16MatMultAcc            0      0.00%     99.94% # attempts to use FU when none available (Count)
system.bigCluster.cpus.statFuBusy::SimdBf16Mult            0      0.00%     99.94% # attempts to use FU when none available (Count)
system.bigCluster.cpus.statFuBusy::SimdBf16MultAcc            0      0.00%     99.94% # attempts to use FU when none available (Count)
system.bigCluster.cpus.statFuBusy::Bf16Cvt            0      0.00%     99.94% # attempts to use FU when none available (Count)
system.bigCluster.cpus.statFuBusy::System        22386      0.06%    100.00% # attempts to use FU when none available (Count)
system.bigCluster.cpus.issuedInstType_0::No_OpClass          465      0.00%      0.00% # Number of instructions issued per FU type, per thread (Count)
system.bigCluster.cpus.issuedInstType_0::IntAlu    140767459     70.65%     70.65% # Number of instructions issued per FU type, per thread (Count)
system.bigCluster.cpus.issuedInstType_0::IntMult       152888      0.08%     70.73% # Number of instructions issued per FU type, per thread (Count)
system.bigCluster.cpus.issuedInstType_0::IntDiv        22783      0.01%     70.74% # Number of instructions issued per FU type, per thread (Count)
system.bigCluster.cpus.issuedInstType_0::FloatAdd            0      0.00%     70.74% # Number of instructions issued per FU type, per thread (Count)
system.bigCluster.cpus.issuedInstType_0::FloatCmp            0      0.00%     70.74% # Number of instructions issued per FU type, per thread (Count)
system.bigCluster.cpus.issuedInstType_0::FloatCvt            0      0.00%     70.74% # Number of instructions issued per FU type, per thread (Count)
system.bigCluster.cpus.issuedInstType_0::FloatMult            0      0.00%     70.74% # Number of instructions issued per FU type, per thread (Count)
system.bigCluster.cpus.issuedInstType_0::FloatMultAcc            0      0.00%     70.74% # Number of instructions issued per FU type, per thread (Count)
system.bigCluster.cpus.issuedInstType_0::FloatDiv            0      0.00%     70.74% # Number of instructions issued per FU type, per thread (Count)
system.bigCluster.cpus.issuedInstType_0::FloatMisc            0      0.00%     70.74% # Number of instructions issued per FU type, per thread (Count)
system.bigCluster.cpus.issuedInstType_0::FloatSqrt            0      0.00%     70.74% # Number of instructions issued per FU type, per thread (Count)
system.bigCluster.cpus.issuedInstType_0::SimdAdd            0      0.00%     70.74% # Number of instructions issued per FU type, per thread (Count)
system.bigCluster.cpus.issuedInstType_0::SimdAddAcc            0      0.00%     70.74% # Number of instructions issued per FU type, per thread (Count)
system.bigCluster.cpus.issuedInstType_0::SimdAlu            0      0.00%     70.74% # Number of instructions issued per FU type, per thread (Count)
system.bigCluster.cpus.issuedInstType_0::SimdCmp            0      0.00%     70.74% # Number of instructions issued per FU type, per thread (Count)
system.bigCluster.cpus.issuedInstType_0::SimdCvt            0      0.00%     70.74% # Number of instructions issued per FU type, per thread (Count)
system.bigCluster.cpus.issuedInstType_0::SimdMisc            0      0.00%     70.74% # Number of instructions issued per FU type, per thread (Count)
system.bigCluster.cpus.issuedInstType_0::SimdMult            0      0.00%     70.74% # Number of instructions issued per FU type, per thread (Count)
system.bigCluster.cpus.issuedInstType_0::SimdMultAcc            0      0.00%     70.74% # Number of instructions issued per FU type, per thread (Count)
system.bigCluster.cpus.issuedInstType_0::SimdMatMultAcc            0      0.00%     70.74% # Number of instructions issued per FU type, per thread (Count)
system.bigCluster.cpus.issuedInstType_0::SimdShift            0      0.00%     70.74% # Number of instructions issued per FU type, per thread (Count)
system.bigCluster.cpus.issuedInstType_0::SimdShiftAcc            0      0.00%     70.74% # Number of instructions issued per FU type, per thread (Count)
system.bigCluster.cpus.issuedInstType_0::SimdDiv            0      0.00%     70.74% # Number of instructions issued per FU type, per thread (Count)
system.bigCluster.cpus.issuedInstType_0::SimdSqrt            0      0.00%     70.74% # Number of instructions issued per FU type, per thread (Count)
system.bigCluster.cpus.issuedInstType_0::SimdFloatAdd            0      0.00%     70.74% # Number of instructions issued per FU type, per thread (Count)
system.bigCluster.cpus.issuedInstType_0::SimdFloatAlu            0      0.00%     70.74% # Number of instructions issued per FU type, per thread (Count)
system.bigCluster.cpus.issuedInstType_0::SimdFloatCmp            0      0.00%     70.74% # Number of instructions issued per FU type, per thread (Count)
system.bigCluster.cpus.issuedInstType_0::SimdFloatCvt            0      0.00%     70.74% # Number of instructions issued per FU type, per thread (Count)
system.bigCluster.cpus.issuedInstType_0::SimdFloatDiv            0      0.00%     70.74% # Number of instructions issued per FU type, per thread (Count)
system.bigCluster.cpus.issuedInstType_0::SimdFloatMisc            0      0.00%     70.74% # Number of instructions issued per FU type, per thread (Count)
system.bigCluster.cpus.issuedInstType_0::SimdFloatMult            0      0.00%     70.74% # Number of instructions issued per FU type, per thread (Count)
system.bigCluster.cpus.issuedInstType_0::SimdFloatMultAcc            0      0.00%     70.74% # Number of instructions issued per FU type, per thread (Count)
system.bigCluster.cpus.issuedInstType_0::SimdFloatMatMultAcc            0      0.00%     70.74% # Number of instructions issued per FU type, per thread (Count)
system.bigCluster.cpus.issuedInstType_0::SimdFloatSqrt            0      0.00%     70.74% # Number of instructions issued per FU type, per thread (Count)
system.bigCluster.cpus.issuedInstType_0::SimdReduceAdd            0      0.00%     70.74% # Number of instructions issued per FU type, per thread (Count)
system.bigCluster.cpus.issuedInstType_0::SimdReduceAlu            0      0.00%     70.74% # Number of instructions issued per FU type, per thread (Count)
system.bigCluster.cpus.issuedInstType_0::SimdReduceCmp            0      0.00%     70.74% # Number of instructions issued per FU type, per thread (Count)
system.bigCluster.cpus.issuedInstType_0::SimdFloatReduceAdd            0      0.00%     70.74% # Number of instructions issued per FU type, per thread (Count)
system.bigCluster.cpus.issuedInstType_0::SimdFloatReduceCmp            0      0.00%     70.74% # Number of instructions issued per FU type, per thread (Count)
system.bigCluster.cpus.issuedInstType_0::SimdAes            0      0.00%     70.74% # Number of instructions issued per FU type, per thread (Count)
system.bigCluster.cpus.issuedInstType_0::SimdAesMix            0      0.00%     70.74% # Number of instructions issued per FU type, per thread (Count)
system.bigCluster.cpus.issuedInstType_0::SimdSha1Hash            0      0.00%     70.74% # Number of instructions issued per FU type, per thread (Count)
system.bigCluster.cpus.issuedInstType_0::SimdSha1Hash2            0      0.00%     70.74% # Number of instructions issued per FU type, per thread (Count)
system.bigCluster.cpus.issuedInstType_0::SimdSha256Hash            0      0.00%     70.74% # Number of instructions issued per FU type, per thread (Count)
system.bigCluster.cpus.issuedInstType_0::SimdSha256Hash2            0      0.00%     70.74% # Number of instructions issued per FU type, per thread (Count)
system.bigCluster.cpus.issuedInstType_0::SimdShaSigma2            0      0.00%     70.74% # Number of instructions issued per FU type, per thread (Count)
system.bigCluster.cpus.issuedInstType_0::SimdShaSigma3            0      0.00%     70.74% # Number of instructions issued per FU type, per thread (Count)
system.bigCluster.cpus.issuedInstType_0::SimdSha3            0      0.00%     70.74% # Number of instructions issued per FU type, per thread (Count)
system.bigCluster.cpus.issuedInstType_0::SimdSm4e            0      0.00%     70.74% # Number of instructions issued per FU type, per thread (Count)
system.bigCluster.cpus.issuedInstType_0::SimdCrc         4124      0.00%     70.74% # Number of instructions issued per FU type, per thread (Count)
system.bigCluster.cpus.issuedInstType_0::SimdPredAlu            0      0.00%     70.74% # Number of instructions issued per FU type, per thread (Count)
system.bigCluster.cpus.issuedInstType_0::SimdDotProd            0      0.00%     70.74% # Number of instructions issued per FU type, per thread (Count)
system.bigCluster.cpus.issuedInstType_0::Matrix            0      0.00%     70.74% # Number of instructions issued per FU type, per thread (Count)
system.bigCluster.cpus.issuedInstType_0::MatrixMov            0      0.00%     70.74% # Number of instructions issued per FU type, per thread (Count)
system.bigCluster.cpus.issuedInstType_0::MatrixOP            0      0.00%     70.74% # Number of instructions issued per FU type, per thread (Count)
system.bigCluster.cpus.issuedInstType_0::MemRead     35119326     17.63%     88.37% # Number of instructions issued per FU type, per thread (Count)
system.bigCluster.cpus.issuedInstType_0::MemWrite     21915138     11.00%     99.37% # Number of instructions issued per FU type, per thread (Count)
system.bigCluster.cpus.issuedInstType_0::FloatMemRead            0      0.00%     99.37% # Number of instructions issued per FU type, per thread (Count)
system.bigCluster.cpus.issuedInstType_0::FloatMemWrite            0      0.00%     99.37% # Number of instructions issued per FU type, per thread (Count)
system.bigCluster.cpus.issuedInstType_0::InstPrefetch            0      0.00%     99.37% # Number of instructions issued per FU type, per thread (Count)
system.bigCluster.cpus.issuedInstType_0::SimdUnitStrideLoad            0      0.00%     99.37% # Number of instructions issued per FU type, per thread (Count)
system.bigCluster.cpus.issuedInstType_0::SimdUnitStrideStore            0      0.00%     99.37% # Number of instructions issued per FU type, per thread (Count)
system.bigCluster.cpus.issuedInstType_0::SimdUnitStrideMaskLoad            0      0.00%     99.37% # Number of instructions issued per FU type, per thread (Count)
system.bigCluster.cpus.issuedInstType_0::SimdUnitStrideMaskStore            0      0.00%     99.37% # Number of instructions issued per FU type, per thread (Count)
system.bigCluster.cpus.issuedInstType_0::SimdStridedLoad            0      0.00%     99.37% # Number of instructions issued per FU type, per thread (Count)
system.bigCluster.cpus.issuedInstType_0::SimdStridedStore            0      0.00%     99.37% # Number of instructions issued per FU type, per thread (Count)
system.bigCluster.cpus.issuedInstType_0::SimdIndexedLoad            0      0.00%     99.37% # Number of instructions issued per FU type, per thread (Count)
system.bigCluster.cpus.issuedInstType_0::SimdIndexedStore            0      0.00%     99.37% # Number of instructions issued per FU type, per thread (Count)
system.bigCluster.cpus.issuedInstType_0::SimdWholeRegisterLoad            0      0.00%     99.37% # Number of instructions issued per FU type, per thread (Count)
system.bigCluster.cpus.issuedInstType_0::SimdWholeRegisterStore            0      0.00%     99.37% # Number of instructions issued per FU type, per thread (Count)
system.bigCluster.cpus.issuedInstType_0::SimdUnitStrideFaultOnlyFirstLoad            0      0.00%     99.37% # Number of instructions issued per FU type, per thread (Count)
system.bigCluster.cpus.issuedInstType_0::SimdUnitStrideSegmentedLoad            0      0.00%     99.37% # Number of instructions issued per FU type, per thread (Count)
system.bigCluster.cpus.issuedInstType_0::SimdUnitStrideSegmentedStore            0      0.00%     99.37% # Number of instructions issued per FU type, per thread (Count)
system.bigCluster.cpus.issuedInstType_0::SimdUnitStrideSegmentedFaultOnlyFirstLoad            0      0.00%     99.37% # Number of instructions issued per FU type, per thread (Count)
system.bigCluster.cpus.issuedInstType_0::SimdStrideSegmentedLoad            0      0.00%     99.37% # Number of instructions issued per FU type, per thread (Count)
system.bigCluster.cpus.issuedInstType_0::SimdStrideSegmentedStore            0      0.00%     99.37% # Number of instructions issued per FU type, per thread (Count)
system.bigCluster.cpus.issuedInstType_0::SimdExt            0      0.00%     99.37% # Number of instructions issued per FU type, per thread (Count)
system.bigCluster.cpus.issuedInstType_0::SimdFloatExt            0      0.00%     99.37% # Number of instructions issued per FU type, per thread (Count)
system.bigCluster.cpus.issuedInstType_0::SimdConfig            0      0.00%     99.37% # Number of instructions issued per FU type, per thread (Count)
system.bigCluster.cpus.issuedInstType_0::SimdBf16Add            0      0.00%     99.37% # Number of instructions issued per FU type, per thread (Count)
system.bigCluster.cpus.issuedInstType_0::SimdBf16Cmp            0      0.00%     99.37% # Number of instructions issued per FU type, per thread (Count)
system.bigCluster.cpus.issuedInstType_0::SimdBf16Cvt            0      0.00%     99.37% # Number of instructions issued per FU type, per thread (Count)
system.bigCluster.cpus.issuedInstType_0::SimdBf16DotProd            0      0.00%     99.37% # Number of instructions issued per FU type, per thread (Count)
system.bigCluster.cpus.issuedInstType_0::SimdBf16MatMultAcc            0      0.00%     99.37% # Number of instructions issued per FU type, per thread (Count)
system.bigCluster.cpus.issuedInstType_0::SimdBf16Mult            0      0.00%     99.37% # Number of instructions issued per FU type, per thread (Count)
system.bigCluster.cpus.issuedInstType_0::SimdBf16MultAcc            0      0.00%     99.37% # Number of instructions issued per FU type, per thread (Count)
system.bigCluster.cpus.issuedInstType_0::Bf16Cvt            0      0.00%     99.37% # Number of instructions issued per FU type, per thread (Count)
system.bigCluster.cpus.issuedInstType_0::System      1255005      0.63%    100.00% # Number of instructions issued per FU type, per thread (Count)
system.bigCluster.cpus.issuedInstType_0::total    199237188                       # Number of instructions issued per FU type, per thread (Count)
system.bigCluster.cpus.issueRate             0.702217                       # Inst issue rate ((Count/Cycle))
system.bigCluster.cpus.fuBusy                38073478                       # FU busy when requested (Count)
system.bigCluster.cpus.fuBusyRate            0.191096                       # FU busy rate (busy events/executed inst) ((Count/Count))
system.bigCluster.cpus.intInstQueueReads    717480233                       # Number of integer instruction queue reads (Count)
system.bigCluster.cpus.intInstQueueWrites    218169093                       # Number of integer instruction queue writes (Count)
system.bigCluster.cpus.intInstQueueWakeupAccesses    196247070                       # Number of integer instruction queue wakeup accesses (Count)
system.bigCluster.cpus.fpInstQueueReads             0                       # Number of floating instruction queue reads (Count)
system.bigCluster.cpus.fpInstQueueWrites            0                       # Number of floating instruction queue writes (Count)
system.bigCluster.cpus.fpInstQueueWakeupAccesses            0                       # Number of floating instruction queue wakeup accesses (Count)
system.bigCluster.cpus.vecInstQueueReads            0                       # Number of vector instruction queue reads (Count)
system.bigCluster.cpus.vecInstQueueWrites            0                       # Number of vector instruction queue writes (Count)
system.bigCluster.cpus.vecInstQueueWakeupAccesses            0                       # Number of vector instruction queue wakeup accesses (Count)
system.bigCluster.cpus.intAluAccesses       237310201                       # Number of integer alu accesses (Count)
system.bigCluster.cpus.fpAluAccesses                0                       # Number of floating point alu accesses (Count)
system.bigCluster.cpus.vecAluAccesses               0                       # Number of vector alu accesses (Count)
system.bigCluster.cpus.numRecvResp           46669842                       # Number of received responses (Count)
system.bigCluster.cpus.numRecvRespBytes     395669517                       # Number of received response bytes (Byte)
system.bigCluster.cpus.recvRespAvgBW             1.39                       # Average bandwidth of received responses ((Byte/Cycle))
system.bigCluster.cpus.recvRespAvgSize           8.48                       # Average packet size per received response ((Byte/Count))
system.bigCluster.cpus.recvRespAvgRate           0.16                       # Average rate of received responses per cycle ((Count/Cycle))
system.bigCluster.cpus.recvRespAvgRetryRate         0.00                       # Average retry rate per received response ((Count/Count))
system.bigCluster.cpus.numSendRetryResp             0                       # Number of retry responses sent (Count)
system.bigCluster.cpus.numSquashedInsts       2370673                       # Number of squashed instructions skipped in execute (Count)
system.bigCluster.cpus.numSwp                       0                       # Number of swp insts executed (Count)
system.bigCluster.cpus.timesIdled               83344                       # Number of times that the entire CPU went into an idle state and unscheduled itself (Count)
system.bigCluster.cpus.idleCycles             3443849                       # Total number of cycles that the CPU has spent unscheduled due to idling (Cycle)
system.bigCluster.cpus.quiesceCycles         46223359                       # Total number of cycles that CPU has spent quiesced or waiting for an interrupt (Cycle)
system.bigCluster.cpus.MemDepUnit__0.insertedLoads     35368610                       # Number of loads inserted to the mem dependence unit. (Count)
system.bigCluster.cpus.MemDepUnit__0.insertedStores     22126144                       # Number of stores inserted to the mem dependence unit. (Count)
system.bigCluster.cpus.MemDepUnit__0.conflictingLoads     10013243                       # Number of conflicting loads. (Count)
system.bigCluster.cpus.MemDepUnit__0.conflictingStores      4197556                       # Number of conflicting stores. (Count)
system.bigCluster.cpus.MemDepUnit__1.insertedLoads            0                       # Number of loads inserted to the mem dependence unit. (Count)
system.bigCluster.cpus.MemDepUnit__1.insertedStores            0                       # Number of stores inserted to the mem dependence unit. (Count)
system.bigCluster.cpus.MemDepUnit__1.conflictingLoads            0                       # Number of conflicting loads. (Count)
system.bigCluster.cpus.MemDepUnit__1.conflictingStores            0                       # Number of conflicting stores. (Count)
system.bigCluster.cpus.MemDepUnit__2.insertedLoads            0                       # Number of loads inserted to the mem dependence unit. (Count)
system.bigCluster.cpus.MemDepUnit__2.insertedStores            0                       # Number of stores inserted to the mem dependence unit. (Count)
system.bigCluster.cpus.MemDepUnit__2.conflictingLoads            0                       # Number of conflicting loads. (Count)
system.bigCluster.cpus.MemDepUnit__2.conflictingStores            0                       # Number of conflicting stores. (Count)
system.bigCluster.cpus.MemDepUnit__3.insertedLoads            0                       # Number of loads inserted to the mem dependence unit. (Count)
system.bigCluster.cpus.MemDepUnit__3.insertedStores            0                       # Number of stores inserted to the mem dependence unit. (Count)
system.bigCluster.cpus.MemDepUnit__3.conflictingLoads            0                       # Number of conflicting loads. (Count)
system.bigCluster.cpus.MemDepUnit__3.conflictingStores            0                       # Number of conflicting stores. (Count)
system.bigCluster.cpus.bac.fetchTargets             0                       # Number of fetch targets created  (Count)
system.bigCluster.cpus.bac.branches          39457074                       # Number of branches that BAC encountered (Count)
system.bigCluster.cpus.bac.predTakenBranches     23676793                       # Number of branches that BAC predicted taken. (Count)
system.bigCluster.cpus.bac.branchesNotLastuOp            0                       # Number of branches that fetch encountered which are not the last uOp within a macrooperation. Jump to itself. (Count)
system.bigCluster.cpus.bac.branchMisspredict       750117                       # Number of mispredicted branches (Count)
system.bigCluster.cpus.bac.noBranchMisspredict       761550                       # Number of non-branch instructions mispredicted (Count)
system.bigCluster.cpus.bac.squashBranchDecode       212705                       # Number of branches squashed from decode (Count)
system.bigCluster.cpus.bac.squashBranchCommit       537412                       # Number of branches squashed from commit (Count)
system.bigCluster.cpus.bac.preDecUpdate::NoBranch            0                       # Number of branches extracted from the predecoder (Count)
system.bigCluster.cpus.bac.preDecUpdate::Return            0                       # Number of branches extracted from the predecoder (Count)
system.bigCluster.cpus.bac.preDecUpdate::CallDirect            0                       # Number of branches extracted from the predecoder (Count)
system.bigCluster.cpus.bac.preDecUpdate::CallIndirect            0                       # Number of branches extracted from the predecoder (Count)
system.bigCluster.cpus.bac.preDecUpdate::DirectCond            0                       # Number of branches extracted from the predecoder (Count)
system.bigCluster.cpus.bac.preDecUpdate::DirectUncond            0                       # Number of branches extracted from the predecoder (Count)
system.bigCluster.cpus.bac.preDecUpdate::IndirectCond            0                       # Number of branches extracted from the predecoder (Count)
system.bigCluster.cpus.bac.preDecUpdate::IndirectUncond            0                       # Number of branches extracted from the predecoder (Count)
system.bigCluster.cpus.bac.preDecUpdate::total            0                       # Number of branches extracted from the predecoder (Count)
system.bigCluster.cpus.bac.noHistByType::NoBranch            0                       # Number and type of branches that were undetected by the BPU. (Count)
system.bigCluster.cpus.bac.noHistByType::Return            0                       # Number and type of branches that were undetected by the BPU. (Count)
system.bigCluster.cpus.bac.noHistByType::CallDirect            0                       # Number and type of branches that were undetected by the BPU. (Count)
system.bigCluster.cpus.bac.noHistByType::CallIndirect            0                       # Number and type of branches that were undetected by the BPU. (Count)
system.bigCluster.cpus.bac.noHistByType::DirectCond            0                       # Number and type of branches that were undetected by the BPU. (Count)
system.bigCluster.cpus.bac.noHistByType::DirectUncond            0                       # Number and type of branches that were undetected by the BPU. (Count)
system.bigCluster.cpus.bac.noHistByType::IndirectCond            0                       # Number and type of branches that were undetected by the BPU. (Count)
system.bigCluster.cpus.bac.noHistByType::IndirectUncond            0                       # Number and type of branches that were undetected by the BPU. (Count)
system.bigCluster.cpus.bac.noHistByType::total            0                       # Number and type of branches that were undetected by the BPU. (Count)
system.bigCluster.cpus.bac.typeMissmatch            0                       # Number branches where the branch type miss match (Count)
system.bigCluster.cpus.bac.multiBranchInst            0                       # Number branches because its not the last branch. (Count)
system.bigCluster.cpus.bac.ftSizeDist::samples            0                       # Number of bytes per fetch target (Count)
system.bigCluster.cpus.bac.ftSizeDist::mean          nan                       # Number of bytes per fetch target (Count)
system.bigCluster.cpus.bac.ftSizeDist::stdev          nan                       # Number of bytes per fetch target (Count)
system.bigCluster.cpus.bac.ftSizeDist::underflows            0                       # Number of bytes per fetch target (Count)
system.bigCluster.cpus.bac.ftSizeDist::0-3            0                       # Number of bytes per fetch target (Count)
system.bigCluster.cpus.bac.ftSizeDist::4-7            0                       # Number of bytes per fetch target (Count)
system.bigCluster.cpus.bac.ftSizeDist::8-11            0                       # Number of bytes per fetch target (Count)
system.bigCluster.cpus.bac.ftSizeDist::12-15            0                       # Number of bytes per fetch target (Count)
system.bigCluster.cpus.bac.ftSizeDist::16-19            0                       # Number of bytes per fetch target (Count)
system.bigCluster.cpus.bac.ftSizeDist::20-23            0                       # Number of bytes per fetch target (Count)
system.bigCluster.cpus.bac.ftSizeDist::24-27            0                       # Number of bytes per fetch target (Count)
system.bigCluster.cpus.bac.ftSizeDist::28-31            0                       # Number of bytes per fetch target (Count)
system.bigCluster.cpus.bac.ftSizeDist::32            0                       # Number of bytes per fetch target (Count)
system.bigCluster.cpus.bac.ftSizeDist::overflows            0                       # Number of bytes per fetch target (Count)
system.bigCluster.cpus.bac.ftSizeDist::min_value            0                       # Number of bytes per fetch target (Count)
system.bigCluster.cpus.bac.ftSizeDist::max_value            0                       # Number of bytes per fetch target (Count)
system.bigCluster.cpus.bac.ftSizeDist::total            0                       # Number of bytes per fetch target (Count)
system.bigCluster.cpus.bac.ftNumber::samples            0                       # Number of fetch target inserted to the FTQ per cycle (Count)
system.bigCluster.cpus.bac.ftNumber::mean          nan                       # Number of fetch target inserted to the FTQ per cycle (Count)
system.bigCluster.cpus.bac.ftNumber::stdev          nan                       # Number of fetch target inserted to the FTQ per cycle (Count)
system.bigCluster.cpus.bac.ftNumber::underflows            0                       # Number of fetch target inserted to the FTQ per cycle (Count)
system.bigCluster.cpus.bac.ftNumber::0              0                       # Number of fetch target inserted to the FTQ per cycle (Count)
system.bigCluster.cpus.bac.ftNumber::1              0                       # Number of fetch target inserted to the FTQ per cycle (Count)
system.bigCluster.cpus.bac.ftNumber::2              0                       # Number of fetch target inserted to the FTQ per cycle (Count)
system.bigCluster.cpus.bac.ftNumber::3              0                       # Number of fetch target inserted to the FTQ per cycle (Count)
system.bigCluster.cpus.bac.ftNumber::4              0                       # Number of fetch target inserted to the FTQ per cycle (Count)
system.bigCluster.cpus.bac.ftNumber::overflows            0                       # Number of fetch target inserted to the FTQ per cycle (Count)
system.bigCluster.cpus.bac.ftNumber::min_value            0                       # Number of fetch target inserted to the FTQ per cycle (Count)
system.bigCluster.cpus.bac.ftNumber::max_value            0                       # Number of fetch target inserted to the FTQ per cycle (Count)
system.bigCluster.cpus.bac.ftNumber::total            0                       # Number of fetch target inserted to the FTQ per cycle (Count)
system.bigCluster.cpus.branchPred.lookups_0::NoBranch          318      0.00%      0.00% # Number of BP lookups (Count)
system.bigCluster.cpus.branchPred.lookups_0::Return      5378485     13.63%     13.63% # Number of BP lookups (Count)
system.bigCluster.cpus.branchPred.lookups_0::CallDirect      4565325     11.57%     25.20% # Number of BP lookups (Count)
system.bigCluster.cpus.branchPred.lookups_0::CallIndirect       804867      2.04%     27.24% # Number of BP lookups (Count)
system.bigCluster.cpus.branchPred.lookups_0::DirectCond     27278663     69.14%     96.38% # Number of BP lookups (Count)
system.bigCluster.cpus.branchPred.lookups_0::DirectUncond      1428290      3.62%    100.00% # Number of BP lookups (Count)
system.bigCluster.cpus.branchPred.lookups_0::IndirectCond            0      0.00%    100.00% # Number of BP lookups (Count)
system.bigCluster.cpus.branchPred.lookups_0::IndirectUncond         1126      0.00%    100.00% # Number of BP lookups (Count)
system.bigCluster.cpus.branchPred.lookups_0::total     39457074                       # Number of BP lookups (Count)
system.bigCluster.cpus.branchPred.squashes_0::NoBranch            4      0.00%      0.00% # Number of branches that got squashed (completely removed) as an earlier branch was mispredicted. (Count)
system.bigCluster.cpus.branchPred.squashes_0::Return      1904944     17.52%     17.52% # Number of branches that got squashed (completely removed) as an earlier branch was mispredicted. (Count)
system.bigCluster.cpus.branchPred.squashes_0::CallDirect      1792905     16.49%     34.01% # Number of branches that got squashed (completely removed) as an earlier branch was mispredicted. (Count)
system.bigCluster.cpus.branchPred.squashes_0::CallIndirect       103582      0.95%     34.96% # Number of branches that got squashed (completely removed) as an earlier branch was mispredicted. (Count)
system.bigCluster.cpus.branchPred.squashes_0::DirectCond      6710761     61.72%     96.68% # Number of branches that got squashed (completely removed) as an earlier branch was mispredicted. (Count)
system.bigCluster.cpus.branchPred.squashes_0::DirectUncond       361329      3.32%    100.00% # Number of branches that got squashed (completely removed) as an earlier branch was mispredicted. (Count)
system.bigCluster.cpus.branchPred.squashes_0::IndirectCond            0      0.00%    100.00% # Number of branches that got squashed (completely removed) as an earlier branch was mispredicted. (Count)
system.bigCluster.cpus.branchPred.squashes_0::IndirectUncond          180      0.00%    100.00% # Number of branches that got squashed (completely removed) as an earlier branch was mispredicted. (Count)
system.bigCluster.cpus.branchPred.squashes_0::total     10873705                       # Number of branches that got squashed (completely removed) as an earlier branch was mispredicted. (Count)
system.bigCluster.cpus.branchPred.corrected_0::NoBranch          258      0.03%      0.03% # Number of branches that got corrected but not yet commited. Branches get corrected by decode or after execute. Also a branch misprediction can be detected out-of-order. Therefore, a corrected branch might not end up beeing committed in case an even earlier branch was mispredicted (Count)
system.bigCluster.cpus.branchPred.corrected_0::Return         7408      0.99%      1.02% # Number of branches that got corrected but not yet commited. Branches get corrected by decode or after execute. Also a branch misprediction can be detected out-of-order. Therefore, a corrected branch might not end up beeing committed in case an even earlier branch was mispredicted (Count)
system.bigCluster.cpus.branchPred.corrected_0::CallDirect       162450     21.66%     22.68% # Number of branches that got corrected but not yet commited. Branches get corrected by decode or after execute. Also a branch misprediction can be detected out-of-order. Therefore, a corrected branch might not end up beeing committed in case an even earlier branch was mispredicted (Count)
system.bigCluster.cpus.branchPred.corrected_0::CallIndirect         8137      1.08%     23.76% # Number of branches that got corrected but not yet commited. Branches get corrected by decode or after execute. Also a branch misprediction can be detected out-of-order. Therefore, a corrected branch might not end up beeing committed in case an even earlier branch was mispredicted (Count)
system.bigCluster.cpus.branchPred.corrected_0::DirectCond       521262     69.49%     93.25% # Number of branches that got corrected but not yet commited. Branches get corrected by decode or after execute. Also a branch misprediction can be detected out-of-order. Therefore, a corrected branch might not end up beeing committed in case an even earlier branch was mispredicted (Count)
system.bigCluster.cpus.branchPred.corrected_0::DirectUncond        50255      6.70%     99.95% # Number of branches that got corrected but not yet commited. Branches get corrected by decode or after execute. Also a branch misprediction can be detected out-of-order. Therefore, a corrected branch might not end up beeing committed in case an even earlier branch was mispredicted (Count)
system.bigCluster.cpus.branchPred.corrected_0::IndirectCond            0      0.00%     99.95% # Number of branches that got corrected but not yet commited. Branches get corrected by decode or after execute. Also a branch misprediction can be detected out-of-order. Therefore, a corrected branch might not end up beeing committed in case an even earlier branch was mispredicted (Count)
system.bigCluster.cpus.branchPred.corrected_0::IndirectUncond          347      0.05%    100.00% # Number of branches that got corrected but not yet commited. Branches get corrected by decode or after execute. Also a branch misprediction can be detected out-of-order. Therefore, a corrected branch might not end up beeing committed in case an even earlier branch was mispredicted (Count)
system.bigCluster.cpus.branchPred.corrected_0::total       750117                       # Number of branches that got corrected but not yet commited. Branches get corrected by decode or after execute. Also a branch misprediction can be detected out-of-order. Therefore, a corrected branch might not end up beeing committed in case an even earlier branch was mispredicted (Count)
system.bigCluster.cpus.branchPred.earlyResteers_0::NoBranch            0      0.00%      0.00% # Number of branches that got redirected after decode. (Count)
system.bigCluster.cpus.branchPred.earlyResteers_0::Return            0      0.00%      0.00% # Number of branches that got redirected after decode. (Count)
system.bigCluster.cpus.branchPred.earlyResteers_0::CallDirect       162450     76.37%     76.37% # Number of branches that got redirected after decode. (Count)
system.bigCluster.cpus.branchPred.earlyResteers_0::CallIndirect            0      0.00%     76.37% # Number of branches that got redirected after decode. (Count)
system.bigCluster.cpus.branchPred.earlyResteers_0::DirectCond            0      0.00%     76.37% # Number of branches that got redirected after decode. (Count)
system.bigCluster.cpus.branchPred.earlyResteers_0::DirectUncond        50255     23.63%    100.00% # Number of branches that got redirected after decode. (Count)
system.bigCluster.cpus.branchPred.earlyResteers_0::IndirectCond            0      0.00%    100.00% # Number of branches that got redirected after decode. (Count)
system.bigCluster.cpus.branchPred.earlyResteers_0::IndirectUncond            0      0.00%    100.00% # Number of branches that got redirected after decode. (Count)
system.bigCluster.cpus.branchPred.earlyResteers_0::total       212705                       # Number of branches that got redirected after decode. (Count)
system.bigCluster.cpus.branchPred.committed_0::NoBranch          314      0.00%      0.00% # Number of branches finally committed  (Count)
system.bigCluster.cpus.branchPred.committed_0::Return      3473541     12.15%     12.15% # Number of branches finally committed  (Count)
system.bigCluster.cpus.branchPred.committed_0::CallDirect      2772420      9.70%     21.85% # Number of branches finally committed  (Count)
system.bigCluster.cpus.branchPred.committed_0::CallIndirect       701285      2.45%     24.31% # Number of branches finally committed  (Count)
system.bigCluster.cpus.branchPred.committed_0::DirectCond     20567902     71.96%     96.26% # Number of branches finally committed  (Count)
system.bigCluster.cpus.branchPred.committed_0::DirectUncond      1066961      3.73%    100.00% # Number of branches finally committed  (Count)
system.bigCluster.cpus.branchPred.committed_0::IndirectCond            0      0.00%    100.00% # Number of branches finally committed  (Count)
system.bigCluster.cpus.branchPred.committed_0::IndirectUncond          946      0.00%    100.00% # Number of branches finally committed  (Count)
system.bigCluster.cpus.branchPred.committed_0::total     28583369                       # Number of branches finally committed  (Count)
system.bigCluster.cpus.branchPred.mispredicted_0::NoBranch          258      0.04%      0.04% # Number of committed branches that were mispredicted. (Count)
system.bigCluster.cpus.branchPred.mispredicted_0::Return         6285      0.93%      0.97% # Number of committed branches that were mispredicted. (Count)
system.bigCluster.cpus.branchPred.mispredicted_0::CallDirect       125173     18.55%     19.52% # Number of committed branches that were mispredicted. (Count)
system.bigCluster.cpus.branchPred.mispredicted_0::CallIndirect         7883      1.17%     20.69% # Number of committed branches that were mispredicted. (Count)
system.bigCluster.cpus.branchPred.mispredicted_0::DirectCond       496463     73.57%     94.25% # Number of committed branches that were mispredicted. (Count)
system.bigCluster.cpus.branchPred.mispredicted_0::DirectUncond        38426      5.69%     99.95% # Number of committed branches that were mispredicted. (Count)
system.bigCluster.cpus.branchPred.mispredicted_0::IndirectCond            0      0.00%     99.95% # Number of committed branches that were mispredicted. (Count)
system.bigCluster.cpus.branchPred.mispredicted_0::IndirectUncond          347      0.05%    100.00% # Number of committed branches that were mispredicted. (Count)
system.bigCluster.cpus.branchPred.mispredicted_0::total       674835                       # Number of committed branches that were mispredicted. (Count)
system.bigCluster.cpus.branchPred.mispredictDueToPredictor_0::NoBranch            4      0.00%      0.00% # Number of committed branches that were mispredicted by the predictor. (Count)
system.bigCluster.cpus.branchPred.mispredictDueToPredictor_0::Return            0      0.00%      0.00% # Number of committed branches that were mispredicted by the predictor. (Count)
system.bigCluster.cpus.branchPred.mispredictDueToPredictor_0::CallDirect            0      0.00%      0.00% # Number of committed branches that were mispredicted by the predictor. (Count)
system.bigCluster.cpus.branchPred.mispredictDueToPredictor_0::CallIndirect            0      0.00%      0.00% # Number of committed branches that were mispredicted by the predictor. (Count)
system.bigCluster.cpus.branchPred.mispredictDueToPredictor_0::DirectCond       352816    100.00%    100.00% # Number of committed branches that were mispredicted by the predictor. (Count)
system.bigCluster.cpus.branchPred.mispredictDueToPredictor_0::DirectUncond            0      0.00%    100.00% # Number of committed branches that were mispredicted by the predictor. (Count)
system.bigCluster.cpus.branchPred.mispredictDueToPredictor_0::IndirectCond            0      0.00%    100.00% # Number of committed branches that were mispredicted by the predictor. (Count)
system.bigCluster.cpus.branchPred.mispredictDueToPredictor_0::IndirectUncond            0      0.00%    100.00% # Number of committed branches that were mispredicted by the predictor. (Count)
system.bigCluster.cpus.branchPred.mispredictDueToPredictor_0::total       352820                       # Number of committed branches that were mispredicted by the predictor. (Count)
system.bigCluster.cpus.branchPred.mispredictDueToBTBMiss_0::NoBranch          254      0.08%      0.08% # Number of committed branches that were mispredicted because of a BTB miss. (Count)
system.bigCluster.cpus.branchPred.mispredictDueToBTBMiss_0::Return         6285      1.95%      2.03% # Number of committed branches that were mispredicted because of a BTB miss. (Count)
system.bigCluster.cpus.branchPred.mispredictDueToBTBMiss_0::CallDirect       125173     38.87%     40.90% # Number of committed branches that were mispredicted because of a BTB miss. (Count)
system.bigCluster.cpus.branchPred.mispredictDueToBTBMiss_0::CallIndirect         7883      2.45%     43.35% # Number of committed branches that were mispredicted because of a BTB miss. (Count)
system.bigCluster.cpus.branchPred.mispredictDueToBTBMiss_0::DirectCond       143647     44.61%     87.96% # Number of committed branches that were mispredicted because of a BTB miss. (Count)
system.bigCluster.cpus.branchPred.mispredictDueToBTBMiss_0::DirectUncond        38426     11.93%     99.89% # Number of committed branches that were mispredicted because of a BTB miss. (Count)
system.bigCluster.cpus.branchPred.mispredictDueToBTBMiss_0::IndirectCond            0      0.00%     99.89% # Number of committed branches that were mispredicted because of a BTB miss. (Count)
system.bigCluster.cpus.branchPred.mispredictDueToBTBMiss_0::IndirectUncond          347      0.11%    100.00% # Number of committed branches that were mispredicted because of a BTB miss. (Count)
system.bigCluster.cpus.branchPred.mispredictDueToBTBMiss_0::total       322015                       # Number of committed branches that were mispredicted because of a BTB miss. (Count)
system.bigCluster.cpus.branchPred.targetProvider_0::NoTarget     15780281     39.99%     39.99% # The component providing the target for taken branches (Count)
system.bigCluster.cpus.branchPred.targetProvider_0::BTB     17515569     44.39%     84.38% # The component providing the target for taken branches (Count)
system.bigCluster.cpus.branchPred.targetProvider_0::RAS      5378485     13.63%     98.02% # The component providing the target for taken branches (Count)
system.bigCluster.cpus.branchPred.targetProvider_0::Indirect       782739      1.98%    100.00% # The component providing the target for taken branches (Count)
system.bigCluster.cpus.branchPred.targetProvider_0::total     39457074                       # The component providing the target for taken branches (Count)
system.bigCluster.cpus.branchPred.targetWrong_0::NoBranch       556387     74.17%     74.17% # Number of branches where the target was incorrect or not available at prediction time. (Count)
system.bigCluster.cpus.branchPred.targetWrong_0::Return       184835     24.64%     98.81% # Number of branches where the target was incorrect or not available at prediction time. (Count)
system.bigCluster.cpus.branchPred.targetWrong_0::CallDirect         7408      0.99%     99.80% # Number of branches where the target was incorrect or not available at prediction time. (Count)
system.bigCluster.cpus.branchPred.targetWrong_0::CallIndirect         1487      0.20%    100.00% # Number of branches where the target was incorrect or not available at prediction time. (Count)
system.bigCluster.cpus.branchPred.targetWrong_0::DirectCond            0      0.00%    100.00% # Number of branches where the target was incorrect or not available at prediction time. (Count)
system.bigCluster.cpus.branchPred.targetWrong_0::DirectUncond            0      0.00%    100.00% # Number of branches where the target was incorrect or not available at prediction time. (Count)
system.bigCluster.cpus.branchPred.targetWrong_0::IndirectCond            0      0.00%    100.00% # Number of branches where the target was incorrect or not available at prediction time. (Count)
system.bigCluster.cpus.branchPred.targetWrong_0::IndirectUncond            0      0.00%    100.00% # Number of branches where the target was incorrect or not available at prediction time. (Count)
system.bigCluster.cpus.branchPred.targetWrong_0::total       750117                       # Number of branches where the target was incorrect or not available at prediction time. (Count)
system.bigCluster.cpus.branchPred.condPredicted     27278663                       # Number of conditional branches predicted (Count)
system.bigCluster.cpus.branchPred.condPredictedTaken     12245944                       # Number of conditional branches predicted as taken (Count)
system.bigCluster.cpus.branchPred.condIncorrect       674835                       # Number of conditional branches incorrect (Count)
system.bigCluster.cpus.branchPred.predTakenBTBMiss       342821                       # Number of branches predicted taken but missed in BTB (Count)
system.bigCluster.cpus.branchPred.condWrongBasePred       417053                       # Number of branches predicted wrong with the base predictor (not overridden) (Count)
system.bigCluster.cpus.branchPred.condWrongOverridden            0                       # Number of branches predicted wrong after being overridden (Count)
system.bigCluster.cpus.branchPred.condCorrectBasePred     20150849                       # Number of branches predicted correctly only by the base predictor (not overridden) (Count)
system.bigCluster.cpus.branchPred.condCorrectOverridden            0                       # Number of branches predicted correctly after being overridden (Count)
system.bigCluster.cpus.branchPred.BTBUniqueBranches        25205                       # Number of unique branches encountered by the BTB (Count)
system.bigCluster.cpus.branchPred.BTBLookups     39457074                       # Number of BTB lookups (Count)
system.bigCluster.cpus.branchPred.BTBUpdates       549394                       # Number of BTB updates (Count)
system.bigCluster.cpus.branchPred.BTBHits     22194753                       # Number of BTB hits (Count)
system.bigCluster.cpus.branchPred.BTBHitRatio     0.562504                       # BTB Hit Ratio (Ratio)
system.bigCluster.cpus.branchPred.BTBMispredicted       364930                       # Number BTB mispredictions. No target found or target wrong (Count)
system.bigCluster.cpus.branchPred.indirectLookups       805993                       # Number of indirect predictor lookups. (Count)
system.bigCluster.cpus.branchPred.indirectHits       782739                       # Number of indirect target hits. (Count)
system.bigCluster.cpus.branchPred.indirectMisses        23254                       # Number of indirect misses. (Count)
system.bigCluster.cpus.branchPred.indirectMispredicted            0                       # Number of mispredicted indirect branches. (Count)
system.bigCluster.cpus.branchPred.btb.lookups::NoBranch          318      0.00%      0.00% # Number of BTB lookups (Count)
system.bigCluster.cpus.branchPred.btb.lookups::Return      5378485     13.63%     13.63% # Number of BTB lookups (Count)
system.bigCluster.cpus.branchPred.btb.lookups::CallDirect      4565325     11.57%     25.20% # Number of BTB lookups (Count)
system.bigCluster.cpus.branchPred.btb.lookups::CallIndirect       804867      2.04%     27.24% # Number of BTB lookups (Count)
system.bigCluster.cpus.branchPred.btb.lookups::DirectCond     27278663     69.14%     96.38% # Number of BTB lookups (Count)
system.bigCluster.cpus.branchPred.btb.lookups::DirectUncond      1428290      3.62%    100.00% # Number of BTB lookups (Count)
system.bigCluster.cpus.branchPred.btb.lookups::IndirectCond            0      0.00%    100.00% # Number of BTB lookups (Count)
system.bigCluster.cpus.branchPred.btb.lookups::IndirectUncond         1126      0.00%    100.00% # Number of BTB lookups (Count)
system.bigCluster.cpus.branchPred.btb.lookups::total     39457074                       # Number of BTB lookups (Count)
system.bigCluster.cpus.branchPred.btb.misses::NoBranch          257      0.00%      0.00% # Number of BTB misses (Count)
system.bigCluster.cpus.branchPred.btb.misses::Return      5378485     31.16%     31.16% # Number of BTB misses (Count)
system.bigCluster.cpus.branchPred.btb.misses::CallDirect       249100      1.44%     32.60% # Number of BTB misses (Count)
system.bigCluster.cpus.branchPred.btb.misses::CallIndirect       804867      4.66%     37.26% # Number of BTB misses (Count)
system.bigCluster.cpus.branchPred.btb.misses::DirectCond     10732170     62.17%     99.44% # Number of BTB misses (Count)
system.bigCluster.cpus.branchPred.btb.misses::DirectUncond        96316      0.56%     99.99% # Number of BTB misses (Count)
system.bigCluster.cpus.branchPred.btb.misses::IndirectCond            0      0.00%     99.99% # Number of BTB misses (Count)
system.bigCluster.cpus.branchPred.btb.misses::IndirectUncond         1126      0.01%    100.00% # Number of BTB misses (Count)
system.bigCluster.cpus.branchPred.btb.misses::total     17262321                       # Number of BTB misses (Count)
system.bigCluster.cpus.branchPred.btb.updates::NoBranch          258      0.05%      0.05% # Number of BTB updates (Count)
system.bigCluster.cpus.branchPred.btb.updates::Return            0      0.00%      0.05% # Number of BTB updates (Count)
system.bigCluster.cpus.branchPred.btb.updates::CallDirect       162450     29.57%     29.62% # Number of BTB updates (Count)
system.bigCluster.cpus.branchPred.btb.updates::CallIndirect            0      0.00%     29.62% # Number of BTB updates (Count)
system.bigCluster.cpus.branchPred.btb.updates::DirectCond       336431     61.24%     90.85% # Number of BTB updates (Count)
system.bigCluster.cpus.branchPred.btb.updates::DirectUncond        50255      9.15%    100.00% # Number of BTB updates (Count)
system.bigCluster.cpus.branchPred.btb.updates::IndirectCond            0      0.00%    100.00% # Number of BTB updates (Count)
system.bigCluster.cpus.branchPred.btb.updates::IndirectUncond            0      0.00%    100.00% # Number of BTB updates (Count)
system.bigCluster.cpus.branchPred.btb.updates::total       549394                       # Number of BTB updates (Count)
system.bigCluster.cpus.branchPred.btb.mispredict::NoBranch          258      0.05%      0.05% # Number of BTB mispredictions. No target found or target wrong. (Count)
system.bigCluster.cpus.branchPred.btb.mispredict::Return            0      0.00%      0.05% # Number of BTB mispredictions. No target found or target wrong. (Count)
system.bigCluster.cpus.branchPred.btb.mispredict::CallDirect       162450     29.57%     29.62% # Number of BTB mispredictions. No target found or target wrong. (Count)
system.bigCluster.cpus.branchPred.btb.mispredict::CallIndirect            0      0.00%     29.62% # Number of BTB mispredictions. No target found or target wrong. (Count)
system.bigCluster.cpus.branchPred.btb.mispredict::DirectCond       336431     61.24%     90.85% # Number of BTB mispredictions. No target found or target wrong. (Count)
system.bigCluster.cpus.branchPred.btb.mispredict::DirectUncond        50255      9.15%    100.00% # Number of BTB mispredictions. No target found or target wrong. (Count)
system.bigCluster.cpus.branchPred.btb.mispredict::IndirectCond            0      0.00%    100.00% # Number of BTB mispredictions. No target found or target wrong. (Count)
system.bigCluster.cpus.branchPred.btb.mispredict::IndirectUncond            0      0.00%    100.00% # Number of BTB mispredictions. No target found or target wrong. (Count)
system.bigCluster.cpus.branchPred.btb.mispredict::total       549394                       # Number of BTB mispredictions. No target found or target wrong. (Count)
system.bigCluster.cpus.branchPred.btb.power_state.pwrStateResidencyTicks::UNDEFINED 100000000000                       # Cumulative time (in ticks) in various power states (Tick)
system.bigCluster.cpus.branchPred.conditionalBranchPred.power_state.pwrStateResidencyTicks::UNDEFINED 100000000000                       # Cumulative time (in ticks) in various power states (Tick)
system.bigCluster.cpus.branchPred.indirectBranchPred.lookups       805993                       # Number of lookups (Count)
system.bigCluster.cpus.branchPred.indirectBranchPred.hits       782739                       # Number of hits of a tag (Count)
system.bigCluster.cpus.branchPred.indirectBranchPred.misses        23254                       # Number of misses (Count)
system.bigCluster.cpus.branchPred.indirectBranchPred.targetRecords         8484                       # Number of targets that where recorded/installed in the cache (Count)
system.bigCluster.cpus.branchPred.indirectBranchPred.indirectRecords       814477                       # Number of indirect branches/calls recorded in the indirect hist (Count)
system.bigCluster.cpus.branchPred.indirectBranchPred.speculativeOverflows            1                       # Number of times more than the allowed capacity for speculative branches/calls where in flight and destroy the path history (Count)
system.bigCluster.cpus.branchPred.ras.pushes      7275136                       # Number of times a PC was pushed onto the RAS (Count)
system.bigCluster.cpus.branchPred.ras.pops      7274972                       # Number of times a PC was poped from the RAS (Count)
system.bigCluster.cpus.branchPred.ras.squashes      3801431                       # Number of times the stack operation was squashed due to wrong speculation. (Count)
system.bigCluster.cpus.branchPred.ras.used      3473541                       # Number of times the RAS is the provider (Count)
system.bigCluster.cpus.branchPred.ras.correct      3467256                       # Number of times the RAS is the provider and the prediction is correct (Count)
system.bigCluster.cpus.branchPred.ras.incorrect         6285                       # Number of times the RAS is the provider and the prediction is wrong (Count)
system.bigCluster.cpus.commit.status::running    278796347     99.47%     99.47% # Number of cycles commit is running (Cycle)
system.bigCluster.cpus.commit.status::idle            1      0.00%     99.47% # Number of cycles commit is idle (Cycle)
system.bigCluster.cpus.commit.status::robSquashing       808710      0.29%     99.76% # Number of cycles commit is squashing the ROB (Cycle)
system.bigCluster.cpus.commit.status::trapPending         5026      0.00%     99.76% # Number of cycles commit is processing a trap (Cycle)
system.bigCluster.cpus.commit.status::squashAfterPending       671303      0.24%    100.00% # Number of cycles commit is squashing instructions after a pending squash (Cycle)
system.bigCluster.cpus.commit.commitSquashedInsts     12010553                       # The number of squashed insts skipped by commit (Count)
system.bigCluster.cpus.commit.commitNonSpecStalls      1231369                       # The number of times commit has been forced to stall to communicate backwards (Count)
system.bigCluster.cpus.commit.branchMispredicts       537848                       # The number of times a branch was mispredicted (Count)
system.bigCluster.cpus.commit.numCommittedDist::samples    278182515                       # Number of insts commited each cycle (Count)
system.bigCluster.cpus.commit.numCommittedDist::mean     0.681022                       # Number of insts commited each cycle (Count)
system.bigCluster.cpus.commit.numCommittedDist::stdev     1.501206                       # Number of insts commited each cycle (Count)
system.bigCluster.cpus.commit.numCommittedDist::underflows            0      0.00%      0.00% # Number of insts commited each cycle (Count)
system.bigCluster.cpus.commit.numCommittedDist::0    200290067     72.00%     72.00% # Number of insts commited each cycle (Count)
system.bigCluster.cpus.commit.numCommittedDist::1     37201798     13.37%     85.37% # Number of insts commited each cycle (Count)
system.bigCluster.cpus.commit.numCommittedDist::2     15795343      5.68%     91.05% # Number of insts commited each cycle (Count)
system.bigCluster.cpus.commit.numCommittedDist::3      5905415      2.12%     93.17% # Number of insts commited each cycle (Count)
system.bigCluster.cpus.commit.numCommittedDist::4      7969337      2.86%     96.04% # Number of insts commited each cycle (Count)
system.bigCluster.cpus.commit.numCommittedDist::5      3714007      1.34%     97.37% # Number of insts commited each cycle (Count)
system.bigCluster.cpus.commit.numCommittedDist::6      1912864      0.69%     98.06% # Number of insts commited each cycle (Count)
system.bigCluster.cpus.commit.numCommittedDist::7      2134293      0.77%     98.83% # Number of insts commited each cycle (Count)
system.bigCluster.cpus.commit.numCommittedDist::8      3259391      1.17%    100.00% # Number of insts commited each cycle (Count)
system.bigCluster.cpus.commit.numCommittedDist::overflows            0      0.00%    100.00% # Number of insts commited each cycle (Count)
system.bigCluster.cpus.commit.numCommittedDist::min_value            0                       # Number of insts commited each cycle (Count)
system.bigCluster.cpus.commit.numCommittedDist::max_value            8                       # Number of insts commited each cycle (Count)
system.bigCluster.cpus.commit.numCommittedDist::total    278182515                       # Number of insts commited each cycle (Count)
system.bigCluster.cpus.commit.amos                  0                       # Number of atomic instructions committed (Count)
system.bigCluster.cpus.commit.membars         1065488                       # Number of memory barriers committed (Count)
system.bigCluster.cpus.commit.committedInstType_0::No_OpClass            0      0.00%      0.00% # Class of committed instruction (Count)
system.bigCluster.cpus.commit.committedInstType_0::IntAlu    133706076     70.58%     70.58% # Class of committed instruction (Count)
system.bigCluster.cpus.commit.committedInstType_0::IntMult       136932      0.07%     70.65% # Class of committed instruction (Count)
system.bigCluster.cpus.commit.committedInstType_0::IntDiv        21394      0.01%     70.66% # Class of committed instruction (Count)
system.bigCluster.cpus.commit.committedInstType_0::FloatAdd            0      0.00%     70.66% # Class of committed instruction (Count)
system.bigCluster.cpus.commit.committedInstType_0::FloatCmp            0      0.00%     70.66% # Class of committed instruction (Count)
system.bigCluster.cpus.commit.committedInstType_0::FloatCvt            0      0.00%     70.66% # Class of committed instruction (Count)
system.bigCluster.cpus.commit.committedInstType_0::FloatMult            0      0.00%     70.66% # Class of committed instruction (Count)
system.bigCluster.cpus.commit.committedInstType_0::FloatMultAcc            0      0.00%     70.66% # Class of committed instruction (Count)
system.bigCluster.cpus.commit.committedInstType_0::FloatDiv            0      0.00%     70.66% # Class of committed instruction (Count)
system.bigCluster.cpus.commit.committedInstType_0::FloatMisc            0      0.00%     70.66% # Class of committed instruction (Count)
system.bigCluster.cpus.commit.committedInstType_0::FloatSqrt            0      0.00%     70.66% # Class of committed instruction (Count)
system.bigCluster.cpus.commit.committedInstType_0::SimdAdd            0      0.00%     70.66% # Class of committed instruction (Count)
system.bigCluster.cpus.commit.committedInstType_0::SimdAddAcc            0      0.00%     70.66% # Class of committed instruction (Count)
system.bigCluster.cpus.commit.committedInstType_0::SimdAlu            0      0.00%     70.66% # Class of committed instruction (Count)
system.bigCluster.cpus.commit.committedInstType_0::SimdCmp            0      0.00%     70.66% # Class of committed instruction (Count)
system.bigCluster.cpus.commit.committedInstType_0::SimdCvt            0      0.00%     70.66% # Class of committed instruction (Count)
system.bigCluster.cpus.commit.committedInstType_0::SimdMisc            0      0.00%     70.66% # Class of committed instruction (Count)
system.bigCluster.cpus.commit.committedInstType_0::SimdMult            0      0.00%     70.66% # Class of committed instruction (Count)
system.bigCluster.cpus.commit.committedInstType_0::SimdMultAcc            0      0.00%     70.66% # Class of committed instruction (Count)
system.bigCluster.cpus.commit.committedInstType_0::SimdMatMultAcc            0      0.00%     70.66% # Class of committed instruction (Count)
system.bigCluster.cpus.commit.committedInstType_0::SimdShift            0      0.00%     70.66% # Class of committed instruction (Count)
system.bigCluster.cpus.commit.committedInstType_0::SimdShiftAcc            0      0.00%     70.66% # Class of committed instruction (Count)
system.bigCluster.cpus.commit.committedInstType_0::SimdDiv            0      0.00%     70.66% # Class of committed instruction (Count)
system.bigCluster.cpus.commit.committedInstType_0::SimdSqrt            0      0.00%     70.66% # Class of committed instruction (Count)
system.bigCluster.cpus.commit.committedInstType_0::SimdFloatAdd            0      0.00%     70.66% # Class of committed instruction (Count)
system.bigCluster.cpus.commit.committedInstType_0::SimdFloatAlu            0      0.00%     70.66% # Class of committed instruction (Count)
system.bigCluster.cpus.commit.committedInstType_0::SimdFloatCmp            0      0.00%     70.66% # Class of committed instruction (Count)
system.bigCluster.cpus.commit.committedInstType_0::SimdFloatCvt            0      0.00%     70.66% # Class of committed instruction (Count)
system.bigCluster.cpus.commit.committedInstType_0::SimdFloatDiv            0      0.00%     70.66% # Class of committed instruction (Count)
system.bigCluster.cpus.commit.committedInstType_0::SimdFloatMisc            0      0.00%     70.66% # Class of committed instruction (Count)
system.bigCluster.cpus.commit.committedInstType_0::SimdFloatMult            0      0.00%     70.66% # Class of committed instruction (Count)
system.bigCluster.cpus.commit.committedInstType_0::SimdFloatMultAcc            0      0.00%     70.66% # Class of committed instruction (Count)
system.bigCluster.cpus.commit.committedInstType_0::SimdFloatMatMultAcc            0      0.00%     70.66% # Class of committed instruction (Count)
system.bigCluster.cpus.commit.committedInstType_0::SimdFloatSqrt            0      0.00%     70.66% # Class of committed instruction (Count)
system.bigCluster.cpus.commit.committedInstType_0::SimdReduceAdd            0      0.00%     70.66% # Class of committed instruction (Count)
system.bigCluster.cpus.commit.committedInstType_0::SimdReduceAlu            0      0.00%     70.66% # Class of committed instruction (Count)
system.bigCluster.cpus.commit.committedInstType_0::SimdReduceCmp            0      0.00%     70.66% # Class of committed instruction (Count)
system.bigCluster.cpus.commit.committedInstType_0::SimdFloatReduceAdd            0      0.00%     70.66% # Class of committed instruction (Count)
[...]
system.mem_ctrls.bwTotal::bigCluster.cpus.mmu.walker       127360                       # Total bandwidth to/from this memory ((Byte/Second))
system.mem_ctrls.bwTotal::bigCluster.cpus.inst      2090240                       # Total bandwidth to/from this memory ((Byte/Second))
system.mem_ctrls.bwTotal::bigCluster.cpus.data     99244720                       # Total bandwidth to/from this memory ((Byte/Second))
system.mem_ctrls.bwTotal::littleCluster.cpus.mmu.walker       182400                       # Total bandwidth to/from this memory ((Byte/Second))
system.mem_ctrls.bwTotal::littleCluster.cpus.inst      5440640                       # Total bandwidth to/from this memory ((Byte/Second))
system.mem_ctrls.bwTotal::littleCluster.cpus.data    154263680                       # Total bandwidth to/from this memory ((Byte/Second))
system.mem_ctrls.bwTotal::total             275281840                       # Total bandwidth to/from this memory ((Byte/Second))
system.mem_ctrls.power_state.pwrStateResidencyTicks::UNDEFINED 100000000000                       # Cumulative time (in ticks) in various power states (Tick)
system.membus.transDist::ReadReq                 6370                       # Transaction distribution (Count)
system.membus.transDist::ReadResp              451172                       # Transaction distribution (Count)
system.membus.transDist::WriteReq                3868                       # Transaction distribution (Count)
system.membus.transDist::WriteResp               3868                       # Transaction distribution (Count)
system.membus.transDist::WritebackDirty         21770                       # Transaction distribution (Count)
system.membus.transDist::CleanEvict            436140                       # Transaction distribution (Count)
system.membus.transDist::UpgradeReq              1602                       # Transaction distribution (Count)
system.membus.transDist::UpgradeResp             1111                       # Transaction distribution (Count)
system.membus.transDist::ReadExReq               9969                       # Transaction distribution (Count)
system.membus.transDist::ReadExResp              9969                       # Transaction distribution (Count)
system.membus.transDist::ReadCleanReq          444803                       # Transaction distribution (Count)
system.membus.transDist::InvalidateReq           9063                       # Transaction distribution (Count)
system.membus.transDist::InvalidateResp             2                       # Transaction distribution (Count)
system.membus.pktCount_system.bigCluster.l2.mem_side_port::system.mem_ctrls.port       493964                       # Packet count per connected requestor and responder (Count)
system.membus.pktCount_system.bigCluster.l2.mem_side_port::system.iobridge.cpu_side_port         9050                       # Packet count per connected requestor and responder (Count)
system.membus.pktCount_system.bigCluster.l2.mem_side_port::total       503014                       # Packet count per connected requestor and responder (Count)
system.membus.pktCount_system.littleCluster.l2.mem_side_port::system.mem_ctrls.port       837753                       # Packet count per connected requestor and responder (Count)
system.membus.pktCount_system.littleCluster.l2.mem_side_port::system.iobridge.cpu_side_port        11394                       # Packet count per connected requestor and responder (Count)
system.membus.pktCount_system.littleCluster.l2.mem_side_port::system.realview.gic.pio           18                       # Packet count per connected requestor and responder (Count)
system.membus.pktCount_system.littleCluster.l2.mem_side_port::total       849165                       # Packet count per connected requestor and responder (Count)
system.membus.pktCount::total                 1352179                       # Packet count per connected requestor and responder (Count)
system.membus.pktSize_system.bigCluster.l2.mem_side_port::system.mem_ctrls.port     10748280                       # Cumulative packet size per connected requestor and responder (Byte)
system.membus.pktSize_system.bigCluster.l2.mem_side_port::system.iobridge.cpu_side_port        11416                       # Cumulative packet size per connected requestor and responder (Byte)
system.membus.pktSize_system.bigCluster.l2.mem_side_port::total     10759696                       # Cumulative packet size per connected requestor and responder (Byte)
system.membus.pktSize_system.littleCluster.l2.mem_side_port::system.mem_ctrls.port     16779840                       # Cumulative packet size per connected requestor and responder (Byte)
system.membus.pktSize_system.littleCluster.l2.mem_side_port::system.iobridge.cpu_side_port        15877                       # Cumulative packet size per connected requestor and responder (Byte)
system.membus.pktSize_system.littleCluster.l2.mem_side_port::system.realview.gic.pio           40                       # Cumulative packet size per connected requestor and responder (Byte)
system.membus.pktSize_system.littleCluster.l2.mem_side_port::total     16795757                       # Cumulative packet size per connected requestor and responder (Byte)
system.membus.pktSize::total                 27555453                       # Cumulative packet size per connected requestor and responder (Byte)
system.membus.snoops                            47528                       # Total snoops (Count)
system.membus.snoopTraffic                    2970560                       # Total snoop traffic (Byte)
system.membus.snoopFanout::samples             525697                       # Request fanout histogram (Count)
system.membus.snoopFanout::mean              0.129109                       # Request fanout histogram (Count)
system.membus.snoopFanout::stdev             0.335320                       # Request fanout histogram (Count)
system.membus.snoopFanout::underflows               0      0.00%      0.00% # Request fanout histogram (Count)
system.membus.snoopFanout::0                   457825     87.09%     87.09% # Request fanout histogram (Count)
system.membus.snoopFanout::1                    67872     12.91%    100.00% # Request fanout histogram (Count)
system.membus.snoopFanout::2                        0      0.00%    100.00% # Request fanout histogram (Count)
system.membus.snoopFanout::3                        0      0.00%    100.00% # Request fanout histogram (Count)
system.membus.snoopFanout::overflows                0      0.00%    100.00% # Request fanout histogram (Count)
system.membus.snoopFanout::min_value                0                       # Request fanout histogram (Count)
system.membus.snoopFanout::max_value                1                       # Request fanout histogram (Count)
system.membus.snoopFanout::total               525697                       # Request fanout histogram (Count)
system.membus.badaddr_responder.power_state.pwrStateResidencyTicks::UNDEFINED 100000000000                       # Cumulative time (in ticks) in various power states (Tick)
system.membus.power_state.pwrStateResidencyTicks::UNDEFINED 100000000000                       # Cumulative time (in ticks) in various power states (Tick)
system.membus.reqLayer0.occupancy          1411499435                       # Layer occupancy (ticks) (Tick)
system.membus.reqLayer0.utilization               0.0                       # Layer utilization (Ratio)
system.membus.reqLayer1.occupancy            16222005                       # Layer occupancy (ticks) (Tick)
system.membus.reqLayer1.utilization               0.0                       # Layer utilization (Ratio)
system.membus.reqLayer13.occupancy              15000                       # Layer occupancy (ticks) (Tick)
system.membus.reqLayer13.utilization              0.0                       # Layer utilization (Ratio)
system.membus.respLayer2.occupancy          842135647                       # Layer occupancy (ticks) (Tick)
system.membus.respLayer2.utilization              0.0                       # Layer utilization (Ratio)
system.membus.respLayer3.occupancy         1475395214                       # Layer occupancy (ticks) (Tick)
system.membus.respLayer3.utilization              0.0                       # Layer utilization (Ratio)
system.membus.snoop_filter.totRequests         977101                       # Total number of requests made to the snoop filter. (Count)
system.membus.snoop_filter.hitSingleRequests       466604                       # Number of requests hitting in the snoop filter with a single holder of the requested data. (Count)
system.membus.snoop_filter.hitMultiRequests        63197                       # Number of requests hitting in the snoop filter with multiple (>1) holders of the requested data. (Count)
system.membus.snoop_filter.totSnoops                0                       # Total number of snoops made to the snoop filter. (Count)
system.membus.snoop_filter.hitSingleSnoops            0                       # Number of snoops hitting in the snoop filter with a single holder of the requested data. (Count)
system.membus.snoop_filter.hitMultiSnoops            0                       # Number of snoops hitting in the snoop filter with multiple (>1) holders of the requested data. (Count)
system.pci_vio_block.power_state.pwrStateResidencyTicks::UNDEFINED 100000000000                       # Cumulative time (in ticks) in various power states (Tick)
system.realview.bootmem.power_state.pwrStateResidencyTicks::UNDEFINED 100000000000                       # Cumulative time (in ticks) in various power states (Tick)
system.realview.clcd.power_state.pwrStateResidencyTicks::UNDEFINED 100000000000                       # Cumulative time (in ticks) in various power states (Tick)
system.realview.clock24MHz.clock                41667                       # Clock period in ticks (Tick)
system.realview.clock32KHz.clock             31250000                       # Clock period in ticks (Tick)
system.realview.dcc.osc_cpu.clock               16667                       # Clock period in ticks (Tick)
system.realview.dcc.osc_ddr.clock               25000                       # Clock period in ticks (Tick)
system.realview.dcc.osc_hsbm.clock              25000                       # Clock period in ticks (Tick)
system.realview.dcc.osc_pxl.clock               42105                       # Clock period in ticks (Tick)
system.realview.dcc.osc_smb.clock               20000                       # Clock period in ticks (Tick)
system.realview.dcc.osc_sys.clock               16667                       # Clock period in ticks (Tick)
system.realview.el2_watchdog.power_state.pwrStateResidencyTicks::UNDEFINED 100000000000                       # Cumulative time (in ticks) in various power states (Tick)
system.realview.energy_ctrl.power_state.pwrStateResidencyTicks::UNDEFINED 100000000000                       # Cumulative time (in ticks) in various power states (Tick)
system.realview.flash0.power_state.pwrStateResidencyTicks::UNDEFINED 100000000000                       # Cumulative time (in ticks) in various power states (Tick)
system.realview.flash1.power_state.pwrStateResidencyTicks::UNDEFINED 100000000000                       # Cumulative time (in ticks) in various power states (Tick)
system.realview.generic_timer_mem.frames0.power_state.pwrStateResidencyTicks::UNDEFINED 100000000000                       # Cumulative time (in ticks) in various power states (Tick)
system.realview.generic_timer_mem.frames1.power_state.pwrStateResidencyTicks::UNDEFINED 100000000000                       # Cumulative time (in ticks) in various power states (Tick)
system.realview.generic_timer_mem.power_state.pwrStateResidencyTicks::UNDEFINED 100000000000                       # Cumulative time (in ticks) in various power states (Tick)
system.realview.gic.power_state.pwrStateResidencyTicks::UNDEFINED 100000000000                       # Cumulative time (in ticks) in various power states (Tick)
system.realview.io_voltage.voltage           3.300000                       # Voltage in Volts (Volt)
system.realview.kmi0.power_state.pwrStateResidencyTicks::UNDEFINED 100000000000                       # Cumulative time (in ticks) in various power states (Tick)
system.realview.kmi1.power_state.pwrStateResidencyTicks::UNDEFINED 100000000000                       # Cumulative time (in ticks) in various power states (Tick)
system.realview.mcc.osc_clcd.clock              42105                       # Clock period in ticks (Tick)
system.realview.mcc.osc_mcc.clock               20000                       # Clock period in ticks (Tick)
system.realview.mcc.osc_peripheral.clock        41667                       # Clock period in ticks (Tick)
system.realview.mcc.osc_system_bus.clock        41667                       # Clock period in ticks (Tick)
system.realview.non_trusted_sram.power_state.pwrStateResidencyTicks::UNDEFINED 100000000000                       # Cumulative time (in ticks) in various power states (Tick)
system.realview.pci_bus.transDist::ReadReq          737                       # Transaction distribution (Count)
system.realview.pci_bus.transDist::ReadResp          737                       # Transaction distribution (Count)
system.realview.pci_bus.transDist::WriteReq          737                       # Transaction distribution (Count)
system.realview.pci_bus.transDist::WriteResp          737                       # Transaction distribution (Count)
system.realview.pci_bus.pktCount_system.realview.pci_host.up_to_down.mem_side_port::system.pci_vio_block.pio         2948                       # Packet count per connected requestor and responder (Count)
system.realview.pci_bus.pktCount_system.realview.pci_host.up_to_down.mem_side_port::total         2948                       # Packet count per connected requestor and responder (Count)
system.realview.pci_bus.pktCount::total          2948                       # Packet count per connected requestor and responder (Count)
system.realview.pci_bus.pktSize_system.realview.pci_host.up_to_down.mem_side_port::system.pci_vio_block.pio         2211                       # Cumulative packet size per connected requestor and responder (Byte)
system.realview.pci_bus.pktSize_system.realview.pci_host.up_to_down.mem_side_port::total         2211                       # Cumulative packet size per connected requestor and responder (Byte)
system.realview.pci_bus.pktSize::total           2211                       # Cumulative packet size per connected requestor and responder (Byte)
system.realview.pci_bus.power_state.pwrStateResidencyTicks::UNDEFINED 100000000000                       # Cumulative time (in ticks) in various power states (Tick)
system.realview.pci_bus.reqLayer0.occupancy      2635157                       # Layer occupancy (ticks) (Tick)
system.realview.pci_bus.reqLayer0.utilization          0.0                       # Layer utilization (Ratio)
system.realview.pci_bus.respLayer0.occupancy      2211000                       # Layer occupancy (ticks) (Tick)
system.realview.pci_bus.respLayer0.utilization          0.0                       # Layer utilization (Ratio)
system.realview.pci_host.config_error.power_state.pwrStateResidencyTicks::UNDEFINED 100000000000                       # Cumulative time (in ticks) in various power states (Tick)
system.realview.pci_host.down_to_up.power_state.pwrStateResidencyTicks::UNDEFINED 100000000000                       # Cumulative time (in ticks) in various power states (Tick)
system.realview.pci_host.power_state.pwrStateResidencyTicks::UNDEFINED 100000000000                       # Cumulative time (in ticks) in various power states (Tick)
system.realview.pci_host.up_to_down.power_state.pwrStateResidencyTicks::UNDEFINED 100000000000                       # Cumulative time (in ticks) in various power states (Tick)
system.realview.pwr_ctrl.power_state.pwrStateResidencyTicks::UNDEFINED 100000000000                       # Cumulative time (in ticks) in various power states (Tick)
system.realview.realview_io.power_state.pwrStateResidencyTicks::UNDEFINED 100000000000                       # Cumulative time (in ticks) in various power states (Tick)
system.realview.rtc.power_state.pwrStateResidencyTicks::UNDEFINED 100000000000                       # Cumulative time (in ticks) in various power states (Tick)
system.realview.sp810_fake.power_state.pwrStateResidencyTicks::UNDEFINED 100000000000                       # Cumulative time (in ticks) in various power states (Tick)
system.realview.system_watchdog.power_state.pwrStateResidencyTicks::UNDEFINED 100000000000                       # Cumulative time (in ticks) in various power states (Tick)
system.realview.trusted_dram.power_state.pwrStateResidencyTicks::UNDEFINED 100000000000                       # Cumulative time (in ticks) in various power states (Tick)
system.realview.trusted_sram.power_state.pwrStateResidencyTicks::UNDEFINED 100000000000                       # Cumulative time (in ticks) in various power states (Tick)
system.realview.trusted_watchdog.power_state.pwrStateResidencyTicks::UNDEFINED 100000000000                       # Cumulative time (in ticks) in various power states (Tick)
system.realview.uart0.power_state.pwrStateResidencyTicks::UNDEFINED 100000000000                       # Cumulative time (in ticks) in various power states (Tick)
system.realview.uart1.power_state.pwrStateResidencyTicks::UNDEFINED 100000000000                       # Cumulative time (in ticks) in various power states (Tick)
system.realview.uart2.power_state.pwrStateResidencyTicks::UNDEFINED 100000000000                       # Cumulative time (in ticks) in various power states (Tick)
system.realview.uart3.power_state.pwrStateResidencyTicks::UNDEFINED 100000000000                       # Cumulative time (in ticks) in various power states (Tick)
system.realview.vio0.power_state.pwrStateResidencyTicks::UNDEFINED 100000000000                       # Cumulative time (in ticks) in various power states (Tick)
system.realview.vio1.power_state.pwrStateResidencyTicks::UNDEFINED 100000000000                       # Cumulative time (in ticks) in various power states (Tick)
system.realview.vram.power_state.pwrStateResidencyTicks::UNDEFINED 100000000000                       # Cumulative time (in ticks) in various power states (Tick)
system.realview.watchdog.power_state.pwrStateResidencyTicks::UNDEFINED 100000000000                       # Cumulative time (in ticks) in various power states (Tick)
system.thermal_components0.temperature         28.896                       # Current temperature of this thermal node (Celsius)
system.thermal_components2.temperature         25.020                       # Current temperature of this thermal node (Celsius)
system.thermal_components4.temperature         25.000                       # Current temperature of this thermal node (Celsius)
system.thermal_components6.temperature         25.000                       # Current temperature of this thermal node (Celsius)
system.thermal_model.power_state.pwrStateResidencyTicks::UNDEFINED 100000000000                       # Cumulative time (in ticks) in various power states (Tick)
system.voltage_domain.voltage                       1                       # Voltage in Volts (Volt)
system.workload.inst.arm                            0                       # number of arm instructions executed (Count)
system.workload.inst.quiesce                     2093                       # number of quiesce instructions executed (Count)
system.littleCluster.cpus.idleCycles         28602621                       # Total number of cycles that the object has spent stopped (Unspecified)
system.littleCluster.cpus.tickCycles         16535299                       # Number of cycles that the object actually ticked (Unspecified)

---------- End Simulation Statistics   ----------
